MODEL 1
REMARK VINA RESULT:      -5.5      0.000      0.000
REMARK  14 active torsions:
REMARK  status: ('A' for Active; 'I' for Inactive)
REMARK    1  A    between atoms: N1_1  and  C31_43 
REMARK    2  A    between atoms: C2_3  and  C3_4 
REMARK       I    between atoms: C3_4  and  N2_6 
REMARK    3  A    between atoms: N2_6  and  C4_8 
REMARK    4  A    between atoms: N3_12  and  C10_15 
REMARK    5  A    between atoms: C10_15  and  C11_16 
REMARK    6  A    between atoms: C11_16  and  O2_17 
REMARK    7  A    between atoms: C11_16  and  C12_19 
REMARK    8  A    between atoms: C12_19  and  C13_20 
REMARK    9  A    between atoms: C13_20  and  C21_28 
REMARK   10  A    between atoms: C13_20  and  C14_21 
REMARK   11  A    between atoms: C14_21  and  C15_22 
REMARK       I    between atoms: C21_28  and  N4_30 
REMARK   12  A    between atoms: N4_30  and  C22_32 
REMARK   13  A    between atoms: C23_33  and  O4_34 
REMARK   14  A    between atoms: C31_43  and  C32_44 
ROOT
HETATM    1  N1  MK1 B 902      22.135  19.236  16.557  1.00 28.25     0.096 N 
HETATM    2  C1  MK1 B 902      22.505  17.797  16.622  1.00 30.30     0.307 C 
HETATM    3  C2  MK1 B 902      23.160  17.098  15.447  1.00 27.27     0.200 C 
HETATM    4  N3  MK1 B 902      22.141  17.310  14.359  1.00 28.91    -0.395 N 
HETATM    5  C8  MK1 B 902      21.467  18.628  14.254  1.00 26.24     0.148 C 
HETATM    6  C9  MK1 B 902      21.189  19.377  15.542  1.00 27.47     0.292 C 
ENDROOT
BRANCH   1   7
HETATM    7  C31 MK1 B 902      21.783  19.897  17.820  1.00 36.25     0.312 C 
BRANCH   7   8
HETATM    8  C32 MK1 B 902      22.251  21.324  18.132  1.00 42.75    -0.015 A 
HETATM    9  C36 MK1 B 902      23.603  21.529  18.307  1.00 44.71     0.011 A 
HETATM   10  C35 MK1 B 902      24.033  22.819  18.611  1.00 49.34     0.018 A 
HETATM   11  C34 MK1 B 902      23.100  23.854  18.730  1.00 50.60     0.087 A 
HETATM   12  N5  MK1 B 902      21.721  23.732  18.569  1.00 51.38    -0.375 N 
HETATM   13  C33 MK1 B 902      21.370  22.406  18.265  1.00 47.41     0.096 A 
HETATM   14  H5  MK1 B 902      21.057  24.501  18.660  1.00  0.00     0.164 HD
ENDBRANCH   7   8
ENDBRANCH   1   7
BRANCH   3  15
HETATM   15  C3  MK1 B 902      23.349  15.648  15.803  1.00 28.85     0.242 C 
HETATM   16  O1  MK1 B 902      24.299  15.020  15.354  1.00 29.59    -0.271 OA
HETATM   17  N2  MK1 B 902      22.447  15.105  16.596  1.00 22.29    -0.351 N 
HETATM   18  H2  MK1 B 902      21.670  15.718  16.845  1.00  0.00     0.163 HD
BRANCH  17  19
HETATM   19  C4  MK1 B 902      22.382  13.796  17.163  1.00 23.47     0.022 C 
HETATM   20  C7  MK1 B 902      22.550  12.722  16.178  1.00 22.75     0.037 C 
HETATM   21  C5  MK1 B 902      20.952  13.608  17.700  1.00 27.66     0.037 C 
HETATM   22  C6  MK1 B 902      23.308  13.589  18.173  1.00 21.71     0.037 C 
ENDBRANCH  17  19
ENDBRANCH   3  15
BRANCH   4  23
HETATM   23  C10 MK1 B 902      22.474  16.841  13.029  1.00 20.86     0.149 C 
BRANCH  23  24
HETATM   24  C11 MK1 B 902      21.271  16.369  12.212  1.00 21.68     0.136 C 
BRANCH  24  25
HETATM   25  O2  MK1 B 902      21.669  16.992  11.028  1.00 15.87    -0.394 OA
HETATM   26  H2  MK1 B 902      21.007  16.821  10.369  1.00  0.00     0.210 HD
ENDBRANCH  24  25
BRANCH  24  27
HETATM   27  C12 MK1 B 902      20.967  14.893  11.894  1.00 21.49     0.047 C 
BRANCH  27  28
HETATM   28  C13 MK1 B 902      19.577  14.303  12.174  1.00 26.89     0.084 C 
BRANCH  28  29
HETATM   29  C21 MK1 B 902      19.255  14.277  13.663  1.00 29.35     0.222 C 
HETATM   30  N4  MK1 B 902      18.269  15.083  14.047  1.00 31.19    -0.350 N 
HETATM   31  H4  MK1 B 902      17.955  15.822  13.417  1.00  0.00     0.163 HD
HETATM   32  O3  MK1 B 902      19.814  13.465  14.416  1.00 32.66    -0.273 OA
BRANCH  30  33
HETATM   33  C22 MK1 B 902      17.628  14.938  15.343  1.00 29.22     0.147 C 
HETATM   34  C30 MK1 B 902      17.849  16.047  16.405  1.00 31.86    -0.027 A 
HETATM   35  C29 MK1 B 902      18.920  16.813  16.742  1.00 27.70     0.010 A 
HETATM   36  C25 MK1 B 902      16.554  16.301  17.227  1.00 31.29    -0.047 A 
HETATM   37  C28 MK1 B 902      18.848  17.761  17.754  1.00 29.01     0.001 A 
HETATM   38  C27 MK1 B 902      17.670  17.991  18.479  1.00 28.00     0.001 A 
HETATM   39  C26 MK1 B 902      16.509  17.256  18.216  1.00 32.00     0.008 A 
HETATM   40  C24 MK1 B 902      15.600  15.327  16.582  1.00 32.05     0.073 C 
HETATM   41  C23 MK1 B 902      16.113  14.896  15.228  1.00 28.82     0.149 C 
BRANCH  41  42
HETATM   42  O4  MK1 B 902      15.679  15.721  14.157  1.00 28.32    -0.393 OA
HETATM   43  H4  MK1 B 902      16.082  16.580  14.219  1.00  0.00     0.210 HD
ENDBRANCH  41  42
ENDBRANCH  30  33
ENDBRANCH  28  29
BRANCH  28  44
HETATM   44  C14 MK1 B 902      19.423  12.881  11.607  1.00 28.67     0.052 C 
BRANCH  44  45
HETATM   45  C15 MK1 B 902      19.731  12.812  10.156  1.00 26.89    -0.057 A 
HETATM   46  C16 MK1 B 902      20.924  12.277   9.665  1.00 29.22     0.007 A 
HETATM   47  C17 MK1 B 902      21.186  12.267   8.303  1.00 29.22     0.001 A 
HETATM   48  C18 MK1 B 902      20.235  12.803   7.431  1.00 30.97     0.000 A 
HETATM   49  C19 MK1 B 902      19.035  13.333   7.919  1.00 29.25     0.001 A 
HETATM   50  C20 MK1 B 902      18.786  13.336   9.291  1.00 29.96     0.007 A 
ENDBRANCH  44  45
ENDBRANCH  28  44
ENDBRANCH  27  28
ENDBRANCH  24  27
ENDBRANCH  23  24
ENDBRANCH   4  23
TORSDOF 14
ENDMDL
MODEL 2
REMARK VINA RESULT:      -5.2      2.167      3.535
REMARK  14 active torsions:
REMARK  status: ('A' for Active; 'I' for Inactive)
REMARK    1  A    between atoms: N1_1  and  C31_43 
REMARK    2  A    between atoms: C2_3  and  C3_4 
REMARK       I    between atoms: C3_4  and  N2_6 
REMARK    3  A    between atoms: N2_6  and  C4_8 
REMARK    4  A    between atoms: N3_12  and  C10_15 
REMARK    5  A    between atoms: C10_15  and  C11_16 
REMARK    6  A    between atoms: C11_16  and  O2_17 
REMARK    7  A    between atoms: C11_16  and  C12_19 
REMARK    8  A    between atoms: C12_19  and  C13_20 
REMARK    9  A    between atoms: C13_20  and  C21_28 
REMARK   10  A    between atoms: C13_20  and  C14_21 
REMARK   11  A    between atoms: C14_21  and  C15_22 
REMARK       I    between atoms: C21_28  and  N4_30 
REMARK   12  A    between atoms: N4_30  and  C22_32 
REMARK   13  A    between atoms: C23_33  and  O4_34 
REMARK   14  A    between atoms: C31_43  and  C32_44 
ROOT
HETATM    1  N1  MK1 B 902      22.993  18.270  16.302  1.00 28.25     0.096 N 
HETATM    2  C1  MK1 B 902      24.184  18.421  15.424  1.00 30.30     0.307 C 
HETATM    3  C2  MK1 B 902      24.094  18.201  13.927  1.00 27.27     0.200 C 
HETATM    4  N3  MK1 B 902      23.590  16.785  13.856  1.00 28.91    -0.395 N 
HETATM    5  C8  MK1 B 902      22.542  16.347  14.812  1.00 26.24     0.148 C 
HETATM    6  C9  MK1 B 902      22.571  16.945  16.205  1.00 27.47     0.292 C 
ENDROOT
BRANCH   1   7
HETATM    7  C31 MK1 B 902      23.100  18.782  17.673  1.00 36.25     0.312 C 
BRANCH   7   8
HETATM    8  C32 MK1 B 902      22.911  20.271  17.987  1.00 42.75    -0.015 A 
HETATM    9  C36 MK1 B 902      21.666  20.682  18.413  1.00 44.71     0.011 A 
HETATM   10  C35 MK1 B 902      21.483  22.037  18.680  1.00 49.34     0.018 A 
HETATM   11  C34 MK1 B 902      22.545  22.930  18.510  1.00 50.60     0.087 A 
HETATM   12  N5  MK1 B 902      23.830  22.599  18.084  1.00 51.38    -0.375 N 
HETATM   13  C33 MK1 B 902      23.933  21.220  17.837  1.00 47.41     0.096 A 
HETATM   14  H5  MK1 B 902      24.592  23.266  17.967  1.00  0.00     0.164 HD
ENDBRANCH   7   8
ENDBRANCH   1   7
BRANCH   3  15
HETATM   15  C3  MK1 B 902      25.469  18.368  13.339  1.00 28.85     0.242 C 
HETATM   16  O1  MK1 B 902      26.375  17.610  13.660  1.00 29.59    -0.271 OA
HETATM   17  N2  MK1 B 902      25.639  19.363  12.490  1.00 22.29    -0.351 N 
HETATM   18  H2  MK1 B 902      24.823  19.960  12.360  1.00  0.00     0.163 HD
BRANCH  17  19
HETATM   19  C4  MK1 B 902      26.784  19.737  11.722  1.00 23.47     0.022 C 
HETATM   20  C7  MK1 B 902      26.451  20.429  10.473  1.00 22.75     0.037 C 
HETATM   21  C5  MK1 B 902      27.469  18.434  11.273  1.00 27.66     0.037 C 
HETATM   22  C6  MK1 B 902      27.676  20.535  12.421  1.00 21.71     0.037 C 
ENDBRANCH  17  19
ENDBRANCH   3  15
BRANCH   4  23
HETATM   23  C10 MK1 B 902      23.290  16.245  12.546  1.00 20.86     0.149 C 
BRANCH  23  24
HETATM   24  C11 MK1 B 902      21.798  16.045  12.277  1.00 21.68     0.136 C 
BRANCH  24  25
HETATM   25  O2  MK1 B 902      21.740  16.946  11.212  1.00 15.87    -0.394 OA
HETATM   26  H2  MK1 B 902      22.630  17.145  10.947  1.00  0.00     0.210 HD
ENDBRANCH  24  25
BRANCH  24  27
HETATM   27  C12 MK1 B 902      21.173  14.717  11.812  1.00 21.49     0.047 C 
BRANCH  27  28
HETATM   28  C13 MK1 B 902      19.709  14.387  12.133  1.00 26.89     0.084 C 
BRANCH  28  29
HETATM   29  C21 MK1 B 902      19.414  14.484  13.625  1.00 29.35     0.222 C 
HETATM   30  N4  MK1 B 902      18.285  15.113  13.943  1.00 31.19    -0.350 N 
HETATM   31  H4  MK1 B 902      17.819  15.686  13.239  1.00  0.00     0.163 HD
HETATM   32  O3  MK1 B 902      20.136  13.906  14.450  1.00 32.66    -0.273 OA
BRANCH  30  33
HETATM   33  C22 MK1 B 902      17.701  15.004  15.268  1.00 29.22     0.147 C 
HETATM   34  C30 MK1 B 902      17.991  16.128  16.297  1.00 31.86    -0.027 A 
HETATM   35  C29 MK1 B 902      19.089  16.880  16.571  1.00 27.70     0.010 A 
HETATM   36  C25 MK1 B 902      16.739  16.423  17.172  1.00 31.29    -0.047 A 
HETATM   37  C28 MK1 B 902      19.081  17.848  17.566  1.00 29.01     0.001 A 
HETATM   38  C27 MK1 B 902      17.941  18.115  18.339  1.00 28.00     0.001 A 
HETATM   39  C26 MK1 B 902      16.756  17.396  18.143  1.00 32.00     0.008 A 
HETATM   40  C24 MK1 B 902      15.738  15.455  16.590  1.00 32.05     0.073 C 
HETATM   41  C23 MK1 B 902      16.182  14.989  15.222  1.00 28.82     0.149 C 
BRANCH  41  42
HETATM   42  O4  MK1 B 902      15.714  15.802  14.156  1.00 28.32    -0.393 OA
HETATM   43  H4  MK1 B 902      16.413  15.959  13.531  1.00  0.00     0.210 HD
ENDBRANCH  41  42
ENDBRANCH  30  33
ENDBRANCH  28  29
BRANCH  28  44
HETATM   44  C14 MK1 B 902      19.304  12.989  11.635  1.00 28.67     0.052 C 
BRANCH  44  45
HETATM   45  C15 MK1 B 902      19.503  12.826  10.173  1.00 26.89    -0.057 A 
HETATM   46  C16 MK1 B 902      18.760  13.537   9.229  1.00 29.22     0.007 A 
HETATM   47  C17 MK1 B 902      18.954  13.326   7.872  1.00 29.22     0.001 A 
HETATM   48  C18 MK1 B 902      19.906  12.389   7.467  1.00 30.97     0.000 A 
HETATM   49  C19 MK1 B 902      20.660  11.679   8.410  1.00 29.25     0.001 A 
HETATM   50  C20 MK1 B 902      20.453  11.903   9.771  1.00 29.96     0.007 A 
ENDBRANCH  44  45
ENDBRANCH  28  44
ENDBRANCH  27  28
ENDBRANCH  24  27
ENDBRANCH  23  24
ENDBRANCH   4  23
TORSDOF 14
ENDMDL
MODEL 3
REMARK VINA RESULT:      -5.1      3.078      7.686
REMARK  14 active torsions:
REMARK  status: ('A' for Active; 'I' for Inactive)
REMARK    1  A    between atoms: N1_1  and  C31_43 
REMARK    2  A    between atoms: C2_3  and  C3_4 
REMARK       I    between atoms: C3_4  and  N2_6 
REMARK    3  A    between atoms: N2_6  and  C4_8 
REMARK    4  A    between atoms: N3_12  and  C10_15 
REMARK    5  A    between atoms: C10_15  and  C11_16 
REMARK    6  A    between atoms: C11_16  and  O2_17 
REMARK    7  A    between atoms: C11_16  and  C12_19 
REMARK    8  A    between atoms: C12_19  and  C13_20 
REMARK    9  A    between atoms: C13_20  and  C21_28 
REMARK   10  A    between atoms: C13_20  and  C14_21 
REMARK   11  A    between atoms: C14_21  and  C15_22 
REMARK       I    between atoms: C21_28  and  N4_30 
REMARK   12  A    between atoms: N4_30  and  C22_32 
REMARK   13  A    between atoms: C23_33  and  O4_34 
REMARK   14  A    between atoms: C31_43  and  C32_44 
ROOT
HETATM    1  N1  MK1 B 902      14.880  12.314  15.863  1.00 28.25     0.096 N 
HETATM    2  C1  MK1 B 902      15.537  13.378  16.670  1.00 30.30     0.307 C 
HETATM    3  C2  MK1 B 902      16.944  13.847  16.360  1.00 27.27     0.200 C 
HETATM    4  N3  MK1 B 902      17.726  12.567  16.479  1.00 28.91    -0.395 N 
HETATM    5  C8  MK1 B 902      17.142  11.316  15.933  1.00 26.24     0.148 C 
HETATM    6  C9  MK1 B 902      15.638  11.153  16.011  1.00 27.47     0.292 C 
ENDROOT
BRANCH   1   7
HETATM    7  C31 MK1 B 902      13.435  12.132  16.041  1.00 36.25     0.312 C 
BRANCH   7   8
HETATM    8  C32 MK1 B 902      12.428  13.147  15.489  1.00 42.75    -0.015 A 
HETATM    9  C36 MK1 B 902      11.532  12.707  14.537  1.00 44.71     0.011 A 
HETATM   10  C35 MK1 B 902      10.628  13.630  14.017  1.00 49.34     0.018 A 
HETATM   11  C34 MK1 B 902      10.651  14.955  14.462  1.00 50.60     0.087 A 
HETATM   12  N5  MK1 B 902      11.521  15.480  15.416  1.00 51.38    -0.375 N 
HETATM   13  C33 MK1 B 902      12.397  14.490  15.891  1.00 47.41     0.096 A 
HETATM   14  H5  MK1 B 902      11.521  16.452  15.728  1.00  0.00     0.164 HD
ENDBRANCH   7   8
ENDBRANCH   1   7
BRANCH   3  15
HETATM   15  C3  MK1 B 902      17.338  14.876  17.385  1.00 28.85     0.242 C 
HETATM   16  O1  MK1 B 902      16.956  14.772  18.543  1.00 29.59    -0.271 OA
HETATM   17  N2  MK1 B 902      18.087  15.878  16.969  1.00 22.29    -0.351 N 
HETATM   18  H2  MK1 B 902      18.279  15.883  15.967  1.00  0.00     0.163 HD
BRANCH  17  19
HETATM   19  C4  MK1 B 902      18.673  16.958  17.697  1.00 23.47     0.022 C 
HETATM   20  C7  MK1 B 902      17.689  17.887  18.261  1.00 22.75     0.037 C 
HETATM   21  C5  MK1 B 902      19.467  17.804  16.684  1.00 27.66     0.037 C 
HETATM   22  C6  MK1 B 902      19.499  16.541  18.729  1.00 21.71     0.037 C 
ENDBRANCH  17  19
ENDBRANCH   3  15
BRANCH   4  23
HETATM   23  C10 MK1 B 902      19.138  12.612  16.154  1.00 20.86     0.149 C 
BRANCH  23  24
HETATM   24  C11 MK1 B 902      19.434  12.964  14.695  1.00 21.68     0.136 C 
BRANCH  24  25
HETATM   25  O2  MK1 B 902      19.769  14.295  14.953  1.00 15.87    -0.394 OA
HETATM   26  H2  MK1 B 902      20.092  14.678  14.146  1.00  0.00     0.210 HD
ENDBRANCH  24  25
BRANCH  24  27
HETATM   27  C12 MK1 B 902      20.572  12.338  13.868  1.00 21.49     0.047 C 
BRANCH  27  28
HETATM   28  C13 MK1 B 902      20.673  12.595  12.358  1.00 26.89     0.084 C 
BRANCH  28  29
HETATM   29  C21 MK1 B 902      21.532  13.812  12.040  1.00 29.35     0.222 C 
HETATM   30  N4  MK1 B 902      21.115  14.959  12.570  1.00 31.19    -0.350 N 
HETATM   31  H4  MK1 B 902      20.165  15.022  12.936  1.00  0.00     0.163 HD
HETATM   32  O3  MK1 B 902      22.601  13.687  11.424  1.00 32.66    -0.273 OA
BRANCH  30  33
HETATM   33  C22 MK1 B 902      21.980  16.124  12.640  1.00 29.22     0.147 C 
HETATM   34  C30 MK1 B 902      21.343  17.497  12.981  1.00 31.86    -0.027 A 
HETATM   35  C29 MK1 B 902      20.163  18.084  12.650  1.00 27.70     0.010 A 
HETATM   36  C25 MK1 B 902      22.282  18.340  13.890  1.00 31.29    -0.047 A 
HETATM   37  C28 MK1 B 902      19.826  19.352  13.105  1.00 29.01     0.001 A 
HETATM   38  C27 MK1 B 902      20.676  20.097  13.936  1.00 28.00     0.001 A 
HETATM   39  C26 MK1 B 902      21.918  19.589  14.334  1.00 32.00     0.008 A 
HETATM   40  C24 MK1 B 902      23.445  17.395  14.068  1.00 32.05     0.073 C 
HETATM   41  C23 MK1 B 902      23.042  15.982  13.719  1.00 28.82     0.149 C 
BRANCH  41  42
HETATM   42  O4  MK1 B 902      22.530  15.241  14.817  1.00 28.32    -0.393 OA
HETATM   43  H4  MK1 B 902      21.825  15.720  15.237  1.00  0.00     0.210 HD
ENDBRANCH  41  42
ENDBRANCH  30  33
ENDBRANCH  28  29
BRANCH  28  44
HETATM   44  C14 MK1 B 902      19.292  12.776  11.704  1.00 28.67     0.052 C 
BRANCH  44  45
HETATM   45  C15 MK1 B 902      19.333  12.598  10.231  1.00 26.89    -0.057 A 
HETATM   46  C16 MK1 B 902      18.796  13.534   9.344  1.00 29.22     0.007 A 
HETATM   47  C17 MK1 B 902      18.824  13.309   7.976  1.00 29.22     0.001 A 
HETATM   48  C18 MK1 B 902      19.398  12.128   7.501  1.00 30.97     0.000 A 
HETATM   49  C19 MK1 B 902      19.945  11.190   8.386  1.00 29.25     0.001 A 
HETATM   50  C20 MK1 B 902      19.910  11.431   9.759  1.00 29.96     0.007 A 
ENDBRANCH  44  45
ENDBRANCH  28  44
ENDBRANCH  27  28
ENDBRANCH  24  27
ENDBRANCH  23  24
ENDBRANCH   4  23
TORSDOF 14
ENDMDL
MODEL 4
REMARK VINA RESULT:      -4.9      2.674      6.291
REMARK  14 active torsions:
REMARK  status: ('A' for Active; 'I' for Inactive)
REMARK    1  A    between atoms: N1_1  and  C31_43 
REMARK    2  A    between atoms: C2_3  and  C3_4 
REMARK       I    between atoms: C3_4  and  N2_6 
REMARK    3  A    between atoms: N2_6  and  C4_8 
REMARK    4  A    between atoms: N3_12  and  C10_15 
REMARK    5  A    between atoms: C10_15  and  C11_16 
REMARK    6  A    between atoms: C11_16  and  O2_17 
REMARK    7  A    between atoms: C11_16  and  C12_19 
REMARK    8  A    between atoms: C12_19  and  C13_20 
REMARK    9  A    between atoms: C13_20  and  C21_28 
REMARK   10  A    between atoms: C13_20  and  C14_21 
REMARK   11  A    between atoms: C14_21  and  C15_22 
REMARK       I    between atoms: C21_28  and  N4_30 
REMARK   12  A    between atoms: N4_30  and  C22_32 
REMARK   13  A    between atoms: C23_33  and  O4_34 
REMARK   14  A    between atoms: C31_43  and  C32_44 
ROOT
HETATM    1  N1  MK1 B 902      22.851  15.090  13.655  1.00 28.25     0.096 N 
HETATM    2  C1  MK1 B 902      22.567  14.450  12.343  1.00 30.30     0.307 C 
HETATM    3  C2  MK1 B 902      21.302  13.646  12.115  1.00 27.27     0.200 C 
HETATM    4  N3  MK1 B 902      21.417  12.588  13.179  1.00 28.91    -0.395 N 
HETATM    5  C8  MK1 B 902      21.910  12.975  14.525  1.00 26.24     0.148 C 
HETATM    6  C9  MK1 B 902      22.953  14.071  14.601  1.00 27.47     0.292 C 
ENDROOT
BRANCH   1   7
HETATM    7  C31 MK1 B 902      23.933  16.081  13.700  1.00 36.25     0.312 C 
BRANCH   7   8
HETATM    8  C32 MK1 B 902      23.773  17.405  14.456  1.00 42.75    -0.015 A 
HETATM    9  C36 MK1 B 902      23.699  17.350  15.832  1.00 44.71     0.011 A 
HETATM   10  C35 MK1 B 902      23.533  18.548  16.524  1.00 49.34     0.018 A 
HETATM   11  C34 MK1 B 902      23.446  19.753  15.820  1.00 50.60     0.087 A 
HETATM   12  N5  MK1 B 902      23.512  19.895  14.435  1.00 51.38    -0.375 N 
HETATM   13  C33 MK1 B 902      23.679  18.647  13.813  1.00 47.41     0.096 A 
HETATM   14  H5  MK1 B 902      23.447  20.785  13.940  1.00  0.00     0.164 HD
ENDBRANCH   7   8
ENDBRANCH   1   7
BRANCH   3  15
HETATM   15  C3  MK1 B 902      21.342  13.086  10.719  1.00 28.85     0.242 C 
HETATM   16  O1  MK1 B 902      22.370  12.583  10.283  1.00 29.59    -0.271 OA
HETATM   17  N2  MK1 B 902      20.237  13.178  10.006  1.00 22.29    -0.351 N 
HETATM   18  H2  MK1 B 902      19.473  13.678  10.461  1.00  0.00     0.163 HD
BRANCH  17  19
HETATM   19  C4  MK1 B 902      19.937  12.689   8.698  1.00 23.47     0.022 C 
HETATM   20  C7  MK1 B 902      18.704  13.247   8.133  1.00 22.75     0.037 C 
HETATM   21  C5  MK1 B 902      19.652  11.182   8.836  1.00 27.66     0.037 C 
HETATM   22  C6  MK1 B 902      20.956  12.906   7.784  1.00 21.71     0.037 C 
ENDBRANCH  17  19
ENDBRANCH   3  15
BRANCH   4  23
HETATM   23  C10 MK1 B 902      20.312  11.663  13.326  1.00 20.86     0.149 C 
BRANCH  23  24
HETATM   24  C11 MK1 B 902      18.938  12.333  13.377  1.00 21.68     0.136 C 
BRANCH  24  25
HETATM   25  O2  MK1 B 902      18.416  11.632  12.288  1.00 15.87    -0.394 OA
HETATM   26  H2  MK1 B 902      18.259  12.254  11.586  1.00  0.00     0.210 HD
ENDBRANCH  24  25
BRANCH  24  27
HETATM   27  C12 MK1 B 902      17.950  12.193  14.550  1.00 21.49     0.047 C 
BRANCH  27  28
HETATM   28  C13 MK1 B 902      16.933  13.303  14.852  1.00 26.89     0.084 C 
BRANCH  28  29
HETATM   29  C21 MK1 B 902      17.611  14.631  15.167  1.00 29.35     0.222 C 
HETATM   30  N4  MK1 B 902      18.762  14.541  15.827  1.00 31.19    -0.350 N 
HETATM   31  H4  MK1 B 902      19.006  13.664  16.286  1.00  0.00     0.163 HD
HETATM   32  O3  MK1 B 902      17.153  15.695  14.722  1.00 32.66    -0.273 OA
BRANCH  30  33
HETATM   33  C22 MK1 B 902      19.681  15.664  15.911  1.00 29.22     0.147 C 
HETATM   34  C30 MK1 B 902      19.761  16.644  14.712  1.00 31.86    -0.027 A 
HETATM   35  C29 MK1 B 902      19.698  16.474  13.365  1.00 27.70     0.010 A 
HETATM   36  C25 MK1 B 902      19.949  18.109  15.197  1.00 31.29    -0.047 A 
HETATM   37  C28 MK1 B 902      19.793  17.548  12.489  1.00 29.01     0.001 A 
HETATM   38  C27 MK1 B 902      19.949  18.867  12.940  1.00 28.00     0.001 A 
HETATM   39  C26 MK1 B 902      20.029  19.154  14.307  1.00 32.00     0.008 A 
HETATM   40  C24 MK1 B 902      19.948  17.925  16.695  1.00 32.05     0.073 C 
HETATM   41  C23 MK1 B 902      19.344  16.591  17.067  1.00 28.82     0.149 C 
BRANCH  41  42
HETATM   42  O4  MK1 B 902      17.939  16.631  17.271  1.00 28.32    -0.393 OA
HETATM   43  H4  MK1 B 902      17.650  17.528  17.393  1.00  0.00     0.210 HD
ENDBRANCH  41  42
ENDBRANCH  30  33
ENDBRANCH  28  29
BRANCH  28  44
HETATM   44  C14 MK1 B 902      15.997  12.934  16.016  1.00 28.67     0.052 C 
BRANCH  44  45
HETATM   45  C15 MK1 B 902      14.578  12.831  15.593  1.00 26.89    -0.057 A 
HETATM   46  C16 MK1 B 902      13.892  11.616  15.550  1.00 29.22     0.007 A 
HETATM   47  C17 MK1 B 902      12.577  11.561  15.113  1.00 29.22     0.001 A 
HETATM   48  C18 MK1 B 902      11.952  12.744  14.713  1.00 30.97     0.000 A 
HETATM   49  C19 MK1 B 902      12.633  13.967  14.762  1.00 29.25     0.001 A 
HETATM   50  C20 MK1 B 902      13.955  14.005  15.205  1.00 29.96     0.007 A 
ENDBRANCH  44  45
ENDBRANCH  28  44
ENDBRANCH  27  28
ENDBRANCH  24  27
ENDBRANCH  23  24
ENDBRANCH   4  23
TORSDOF 14
ENDMDL
MODEL 5
REMARK VINA RESULT:      -4.8      3.386      8.837
REMARK  14 active torsions:
REMARK  status: ('A' for Active; 'I' for Inactive)
REMARK    1  A    between atoms: N1_1  and  C31_43 
REMARK    2  A    between atoms: C2_3  and  C3_4 
REMARK       I    between atoms: C3_4  and  N2_6 
REMARK    3  A    between atoms: N2_6  and  C4_8 
REMARK    4  A    between atoms: N3_12  and  C10_15 
REMARK    5  A    between atoms: C10_15  and  C11_16 
REMARK    6  A    between atoms: C11_16  and  O2_17 
REMARK    7  A    between atoms: C11_16  and  C12_19 
REMARK    8  A    between atoms: C12_19  and  C13_20 
REMARK    9  A    between atoms: C13_20  and  C21_28 
REMARK   10  A    between atoms: C13_20  and  C14_21 
REMARK   11  A    between atoms: C14_21  and  C15_22 
REMARK       I    between atoms: C21_28  and  N4_30 
REMARK   12  A    between atoms: N4_30  and  C22_32 
REMARK   13  A    between atoms: C23_33  and  O4_34 
REMARK   14  A    between atoms: C31_43  and  C32_44 
ROOT
HETATM    1  N1  MK1 B 902      14.591  13.645  15.963  1.00 28.25     0.096 N 
HETATM    2  C1  MK1 B 902      15.895  13.010  16.291  1.00 30.30     0.307 C 
HETATM    3  C2  MK1 B 902      16.915  13.711  17.167  1.00 27.27     0.200 C 
HETATM    4  N3  MK1 B 902      17.151  14.985  16.402  1.00 28.91    -0.395 N 
HETATM    5  C8  MK1 B 902      15.992  15.676  15.784  1.00 26.24     0.148 C 
HETATM    6  C9  MK1 B 902      14.864  14.814  15.253  1.00 27.47     0.292 C 
ENDROOT
BRANCH   1   7
HETATM    7  C31 MK1 B 902      13.558  12.790  15.365  1.00 36.25     0.312 C 
BRANCH   7   8
HETATM    8  C32 MK1 B 902      12.083  13.206  15.357  1.00 42.75    -0.015 A 
HETATM    9  C36 MK1 B 902      11.436  13.248  14.140  1.00 44.71     0.011 A 
HETATM   10  C35 MK1 B 902      10.102  13.644  14.124  1.00 49.34     0.018 A 
HETATM   11  C34 MK1 B 902       9.462  13.987  15.319  1.00 50.60     0.087 A 
HETATM   12  N5  MK1 B 902      10.040  13.972  16.587  1.00 51.38    -0.375 N 
HETATM   13  C33 MK1 B 902      11.382  13.562  16.518  1.00 47.41     0.096 A 
HETATM   14  H5  MK1 B 902       9.555  14.225  17.448  1.00  0.00     0.164 HD
ENDBRANCH   7   8
ENDBRANCH   1   7
BRANCH   3  15
HETATM   15  C3  MK1 B 902      18.140  12.841  17.257  1.00 28.85     0.242 C 
HETATM   16  O1  MK1 B 902      18.907  12.950  18.205  1.00 29.59    -0.271 OA
HETATM   17  N2  MK1 B 902      18.340  11.987  16.273  1.00 22.29    -0.351 N 
HETATM   18  H2  MK1 B 902      17.663  12.043  15.512  1.00  0.00     0.163 HD
BRANCH  17  19
HETATM   19  C4  MK1 B 902      19.352  10.994  16.102  1.00 23.47     0.022 C 
HETATM   20  C7  MK1 B 902      20.682  11.553  15.839  1.00 22.75     0.037 C 
HETATM   21  C5  MK1 B 902      19.002  10.211  14.824  1.00 27.66     0.037 C 
HETATM   22  C6  MK1 B 902      19.464  10.132  17.181  1.00 21.71     0.037 C 
ENDBRANCH  17  19
ENDBRANCH   3  15
BRANCH   4  23
HETATM   23  C10 MK1 B 902      18.027  15.972  16.999  1.00 20.86     0.149 C 
BRANCH  23  24
HETATM   24  C11 MK1 B 902      19.401  16.073  16.335  1.00 21.68     0.136 C 
BRANCH  24  25
HETATM   25  O2  MK1 B 902      20.121  15.736  17.483  1.00 15.87    -0.394 OA
HETATM   26  H2  MK1 B 902      20.596  14.932  17.307  1.00  0.00     0.210 HD
ENDBRANCH  24  25
BRANCH  24  27
HETATM   27  C12 MK1 B 902      19.877  15.160  15.190  1.00 21.49     0.047 C 
BRANCH  27  28
HETATM   28  C13 MK1 B 902      19.436  15.426  13.744  1.00 26.89     0.084 C 
BRANCH  28  29
HETATM   29  C21 MK1 B 902      18.998  14.151  13.034  1.00 29.35     0.222 C 
HETATM   30  N4  MK1 B 902      19.583  13.922  11.861  1.00 31.19    -0.350 N 
HETATM   31  H4  MK1 B 902      20.080  14.681  11.396  1.00  0.00     0.163 HD
HETATM   32  O3  MK1 B 902      18.236  13.347  13.592  1.00 32.66    -0.273 OA
BRANCH  30  33
HETATM   33  C22 MK1 B 902      19.529  12.617  11.225  1.00 29.22     0.147 C 
HETATM   34  C30 MK1 B 902      19.480  12.552   9.676  1.00 31.86    -0.027 A 
HETATM   35  C29 MK1 B 902      18.871  13.313   8.730  1.00 27.70     0.010 A 
HETATM   36  C25 MK1 B 902      20.316  11.354   9.140  1.00 31.29    -0.047 A 
HETATM   37  C28 MK1 B 902      18.997  13.034   7.376  1.00 29.01     0.001 A 
HETATM   38  C27 MK1 B 902      19.764  11.959   6.904  1.00 28.00     0.001 A 
HETATM   39  C26 MK1 B 902      20.432  11.108   7.792  1.00 32.00     0.008 A 
HETATM   40  C24 MK1 B 902      20.850  10.770  10.424  1.00 32.05     0.073 C 
HETATM   41  C23 MK1 B 902      20.752  11.775  11.548  1.00 28.82     0.149 C 
BRANCH  41  42
HETATM   42  O4  MK1 B 902      21.897  12.603  11.683  1.00 28.32    -0.393 OA
HETATM   43  H4  MK1 B 902      21.980  12.908  12.579  1.00  0.00     0.210 HD
ENDBRANCH  41  42
ENDBRANCH  30  33
ENDBRANCH  28  29
BRANCH  28  44
HETATM   44  C14 MK1 B 902      20.540  16.104  12.913  1.00 28.67     0.052 C 
BRANCH  44  45
HETATM   45  C15 MK1 B 902      20.754  17.521  13.303  1.00 26.89    -0.057 A 
HETATM   46  C16 MK1 B 902      21.903  17.952  13.968  1.00 29.22     0.007 A 
HETATM   47  C17 MK1 B 902      22.045  19.279  14.346  1.00 29.22     0.001 A 
HETATM   48  C18 MK1 B 902      21.017  20.176  14.050  1.00 30.97     0.000 A 
HETATM   49  C19 MK1 B 902      19.866  19.749  13.375  1.00 29.25     0.001 A 
HETATM   50  C20 MK1 B 902      19.739  18.412  13.002  1.00 29.96     0.007 A 
ENDBRANCH  44  45
ENDBRANCH  28  44
ENDBRANCH  27  28
ENDBRANCH  24  27
ENDBRANCH  23  24
ENDBRANCH   4  23
TORSDOF 14
ENDMDL
MODEL 6
REMARK VINA RESULT:      -4.8      9.056     13.736
REMARK  14 active torsions:
REMARK  status: ('A' for Active; 'I' for Inactive)
REMARK    1  A    between atoms: N1_1  and  C31_43 
REMARK    2  A    between atoms: C2_3  and  C3_4 
REMARK       I    between atoms: C3_4  and  N2_6 
REMARK    3  A    between atoms: N2_6  and  C4_8 
REMARK    4  A    between atoms: N3_12  and  C10_15 
REMARK    5  A    between atoms: C10_15  and  C11_16 
REMARK    6  A    between atoms: C11_16  and  O2_17 
REMARK    7  A    between atoms: C11_16  and  C12_19 
REMARK    8  A    between atoms: C12_19  and  C13_20 
REMARK    9  A    between atoms: C13_20  and  C21_28 
REMARK   10  A    between atoms: C13_20  and  C14_21 
REMARK   11  A    between atoms: C14_21  and  C15_22 
REMARK       I    between atoms: C21_28  and  N4_30 
REMARK   12  A    between atoms: N4_30  and  C22_32 
REMARK   13  A    between atoms: C23_33  and  O4_34 
REMARK   14  A    between atoms: C31_43  and  C32_44 
ROOT
HETATM    1  N1  MK1 B 902      27.010  13.554  -1.381  1.00 28.25     0.096 N 
HETATM    2  C1  MK1 B 902      27.780  12.887  -0.296  1.00 30.30     0.307 C 
HETATM    3  C2  MK1 B 902      27.191  11.738   0.497  1.00 27.27     0.200 C 
HETATM    4  N3  MK1 B 902      25.951  12.368   1.071  1.00 28.91    -0.395 N 
HETATM    5  C8  MK1 B 902      25.141  13.270   0.214  1.00 26.24     0.148 C 
HETATM    6  C9  MK1 B 902      25.879  14.123  -0.798  1.00 27.47     0.292 C 
ENDROOT
BRANCH   1   7
HETATM    7  C31 MK1 B 902      27.752  14.444  -2.282  1.00 36.25     0.312 C 
BRANCH   7   8
HETATM    8  C32 MK1 B 902      28.275  15.805  -1.807  1.00 42.75    -0.015 A 
HETATM    9  C36 MK1 B 902      29.457  15.825  -1.098  1.00 44.71     0.011 A 
HETATM   10  C35 MK1 B 902      29.926  17.056  -0.647  1.00 49.34     0.018 A 
HETATM   11  C34 MK1 B 902      29.200  18.220  -0.916  1.00 50.60     0.087 A 
HETATM   12  N5  MK1 B 902      28.000  18.288  -1.622  1.00 51.38    -0.375 N 
HETATM   13  C33 MK1 B 902      27.596  17.010  -2.042  1.00 47.41     0.096 A 
HETATM   14  H5  MK1 B 902      27.485  19.149  -1.808  1.00  0.00     0.164 HD
ENDBRANCH   7   8
ENDBRANCH   1   7
BRANCH   3  15
HETATM   15  C3  MK1 B 902      28.185  11.329   1.549  1.00 28.85     0.242 C 
HETATM   16  O1  MK1 B 902      28.651  10.197   1.553  1.00 29.59    -0.271 OA
HETATM   17  N2  MK1 B 902      28.507  12.234   2.453  1.00 22.29    -0.351 N 
HETATM   18  H2  MK1 B 902      27.997  13.115   2.377  1.00  0.00     0.163 HD
BRANCH  17  19
HETATM   19  C4  MK1 B 902      29.454  12.180   3.520  1.00 23.47     0.022 C 
HETATM   20  C7  MK1 B 902      29.279  11.020   4.400  1.00 22.75     0.037 C 
HETATM   21  C5  MK1 B 902      29.182  13.396   4.425  1.00 27.66     0.037 C 
HETATM   22  C6  MK1 B 902      30.770  12.186   3.086  1.00 21.71     0.037 C 
ENDBRANCH  17  19
ENDBRANCH   3  15
BRANCH   4  23
HETATM   23  C10 MK1 B 902      25.061  11.519   1.837  1.00 20.86     0.149 C 
BRANCH  23  24
HETATM   24  C11 MK1 B 902      25.107  11.763   3.346  1.00 21.68     0.136 C 
BRANCH  24  25
HETATM   25  O2  MK1 B 902      25.750  12.999   3.254  1.00 15.87    -0.394 OA
HETATM   26  H2  MK1 B 902      25.583  13.353   2.388  1.00  0.00     0.210 HD
ENDBRANCH  24  25
BRANCH  24  27
HETATM   27  C12 MK1 B 902      23.861  11.939   4.233  1.00 21.49     0.047 C 
BRANCH  27  28
HETATM   28  C13 MK1 B 902      24.001  12.347   5.706  1.00 26.89     0.084 C 
BRANCH  28  29
HETATM   29  C21 MK1 B 902      22.875  11.784   6.566  1.00 29.35     0.222 C 
HETATM   30  N4  MK1 B 902      22.283  12.660   7.373  1.00 31.19    -0.350 N 
HETATM   31  H4  MK1 B 902      22.737  13.554   7.558  1.00  0.00     0.163 HD
HETATM   32  O3  MK1 B 902      22.488  10.616   6.413  1.00 32.66    -0.273 OA
BRANCH  30  33
HETATM   33  C22 MK1 B 902      21.004  12.373   8.000  1.00 29.22     0.147 C 
HETATM   34  C30 MK1 B 902      20.914  12.416   9.548  1.00 31.86    -0.027 A 
HETATM   35  C29 MK1 B 902      21.765  12.048  10.542  1.00 27.70     0.010 A 
HETATM   36  C25 MK1 B 902      19.555  13.012  10.014  1.00 31.29    -0.047 A 
HETATM   37  C28 MK1 B 902      21.434  12.203  11.881  1.00 29.01     0.001 A 
HETATM   38  C27 MK1 B 902      20.210  12.755  12.288  1.00 28.00     0.001 A 
HETATM   39  C26 MK1 B 902      19.259  13.164  11.348  1.00 32.00     0.008 A 
HETATM   40  C24 MK1 B 902      18.901  13.322   8.690  1.00 32.05     0.073 C 
HETATM   41  C23 MK1 B 902      19.930  13.364   7.584  1.00 28.82     0.149 C 
BRANCH  41  42
HETATM   42  O4  MK1 B 902      20.500  14.648   7.376  1.00 28.32    -0.393 OA
HETATM   43  H4  MK1 B 902      20.087  15.075   6.634  1.00  0.00     0.210 HD
ENDBRANCH  41  42
ENDBRANCH  30  33
ENDBRANCH  28  29
BRANCH  28  44
HETATM   44  C14 MK1 B 902      24.049  13.874   5.886  1.00 28.67     0.052 C 
BRANCH  44  45
HETATM   45  C15 MK1 B 902      25.370  14.348   6.370  1.00 26.89    -0.057 A 
HETATM   46  C16 MK1 B 902      26.126  13.640   7.306  1.00 29.22     0.007 A 
HETATM   47  C17 MK1 B 902      27.339  14.138   7.757  1.00 29.22     0.001 A 
HETATM   48  C18 MK1 B 902      27.789  15.363   7.260  1.00 30.97     0.000 A 
HETATM   49  C19 MK1 B 902      27.038  16.073   6.316  1.00 29.25     0.001 A 
HETATM   50  C20 MK1 B 902      25.820  15.558   5.871  1.00 29.96     0.007 A 
ENDBRANCH  44  45
ENDBRANCH  28  44
ENDBRANCH  27  28
ENDBRANCH  24  27
ENDBRANCH  23  24
ENDBRANCH   4  23
TORSDOF 14
ENDMDL
MODEL 7
REMARK VINA RESULT:      -4.7     25.869     28.466
REMARK  14 active torsions:
REMARK  status: ('A' for Active; 'I' for Inactive)
REMARK    1  A    between atoms: N1_1  and  C31_43 
REMARK    2  A    between atoms: C2_3  and  C3_4 
REMARK       I    between atoms: C3_4  and  N2_6 
REMARK    3  A    between atoms: N2_6  and  C4_8 
REMARK    4  A    between atoms: N3_12  and  C10_15 
REMARK    5  A    between atoms: C10_15  and  C11_16 
REMARK    6  A    between atoms: C11_16  and  O2_17 
REMARK    7  A    between atoms: C11_16  and  C12_19 
REMARK    8  A    between atoms: C12_19  and  C13_20 
REMARK    9  A    between atoms: C13_20  and  C21_28 
REMARK   10  A    between atoms: C13_20  and  C14_21 
REMARK   11  A    between atoms: C14_21  and  C15_22 
REMARK       I    between atoms: C21_28  and  N4_30 
REMARK   12  A    between atoms: N4_30  and  C22_32 
REMARK   13  A    between atoms: C23_33  and  O4_34 
REMARK   14  A    between atoms: C31_43  and  C32_44 
ROOT
HETATM    1  N1  MK1 B 902       2.100  31.859   4.110  1.00 28.25     0.096 N 
HETATM    2  C1  MK1 B 902       2.768  31.743   2.787  1.00 30.30     0.307 C 
HETATM    3  C2  MK1 B 902       3.387  32.948   2.107  1.00 27.27     0.200 C 
HETATM    4  N3  MK1 B 902       2.207  33.876   1.998  1.00 28.91    -0.395 N 
HETATM    5  C8  MK1 B 902       1.264  33.975   3.140  1.00 26.24     0.148 C 
HETATM    6  C9  MK1 B 902       1.015  32.722   3.954  1.00 27.47     0.292 C 
ENDROOT
BRANCH   1   7
HETATM    7  C31 MK1 B 902       1.795  30.612   4.822  1.00 36.25     0.312 C 
BRANCH   7   8
HETATM    8  C32 MK1 B 902       2.777  30.010   5.834  1.00 42.75    -0.015 A 
HETATM    9  C36 MK1 B 902       2.435  30.066   7.168  1.00 44.71     0.011 A 
HETATM   10  C35 MK1 B 902       3.332  29.539   8.094  1.00 49.34     0.018 A 
HETATM   11  C34 MK1 B 902       4.536  28.978   7.657  1.00 50.60     0.087 A 
HETATM   12  N5  MK1 B 902       4.957  28.882   6.331  1.00 51.38    -0.375 N 
HETATM   13  C33 MK1 B 902       4.001  29.433   5.463  1.00 47.41     0.096 A 
HETATM   14  H5  MK1 B 902       5.840  28.468   6.033  1.00  0.00     0.164 HD
ENDBRANCH   7   8
ENDBRANCH   1   7
BRANCH   3  15
HETATM   15  C3  MK1 B 902       3.922  32.515   0.769  1.00 28.85     0.242 C 
HETATM   16  O1  MK1 B 902       5.128  32.404   0.592  1.00 29.59    -0.271 OA
HETATM   17  N2  MK1 B 902       3.038  32.281  -0.182  1.00 22.29    -0.351 N 
HETATM   18  H2  MK1 B 902       2.070  32.476   0.076  1.00  0.00     0.163 HD
BRANCH  17  19
HETATM   19  C4  MK1 B 902       3.219  31.799  -1.514  1.00 23.47     0.022 C 
HETATM   20  C7  MK1 B 902       3.677  32.829  -2.452  1.00 22.75     0.037 C 
HETATM   21  C5  MK1 B 902       1.829  31.391  -2.036  1.00 27.66     0.037 C 
HETATM   22  C6  MK1 B 902       4.098  30.732  -1.597  1.00 21.71     0.037 C 
ENDBRANCH  17  19
ENDBRANCH   3  15
BRANCH   4  23
HETATM   23  C10 MK1 B 902       2.444  35.202   1.463  1.00 20.86     0.149 C 
BRANCH  23  24
HETATM   24  C11 MK1 B 902       3.422  36.042   2.285  1.00 21.68     0.136 C 
BRANCH  24  25
HETATM   25  O2  MK1 B 902       4.260  36.347   1.211  1.00 15.87    -0.394 OA
HETATM   26  H2  MK1 B 902       3.958  37.160   0.823  1.00  0.00     0.210 HD
ENDBRANCH  24  25
BRANCH  24  27
HETATM   27  C12 MK1 B 902       3.050  37.361   2.987  1.00 21.49     0.047 C 
BRANCH  27  28
HETATM   28  C13 MK1 B 902       4.140  38.358   3.407  1.00 26.89     0.084 C 
BRANCH  28  29
HETATM   29  C21 MK1 B 902       4.181  38.560   4.916  1.00 29.35     0.222 C 
HETATM   30  N4  MK1 B 902       5.392  38.512   5.465  1.00 31.19    -0.350 N 
HETATM   31  H4  MK1 B 902       6.166  38.119   4.929  1.00  0.00     0.163 HD
HETATM   32  O3  MK1 B 902       3.153  38.862   5.541  1.00 32.66    -0.273 OA
BRANCH  30  33
HETATM   33  C22 MK1 B 902       5.638  39.004   6.810  1.00 29.22     0.147 C 
HETATM   34  C30 MK1 B 902       5.500  38.013   7.995  1.00 31.86    -0.027 A 
HETATM   35  C29 MK1 B 902       4.647  36.988   8.258  1.00 27.70     0.010 A 
HETATM   36  C25 MK1 B 902       6.581  38.284   9.080  1.00 31.29    -0.047 A 
HETATM   37  C28 MK1 B 902       4.746  36.237   9.421  1.00 29.01     0.001 A 
HETATM   38  C27 MK1 B 902       5.734  36.482  10.387  1.00 28.00     0.001 A 
HETATM   39  C26 MK1 B 902       6.662  37.515  10.218  1.00 32.00     0.008 A 
HETATM   40  C24 MK1 B 902       7.339  39.431   8.460  1.00 32.05     0.073 C 
HETATM   41  C23 MK1 B 902       7.059  39.516   6.977  1.00 28.82     0.149 C 
BRANCH  41  42
HETATM   42  O4  MK1 B 902       7.953  38.755   6.178  1.00 28.32    -0.393 OA
HETATM   43  H4  MK1 B 902       7.486  38.054   5.738  1.00  0.00     0.210 HD
ENDBRANCH  41  42
ENDBRANCH  30  33
ENDBRANCH  28  29
BRANCH  28  44
HETATM   44  C14 MK1 B 902       3.970  39.727   2.726  1.00 28.67     0.052 C 
BRANCH  44  45
HETATM   45  C15 MK1 B 902       4.370  39.704   1.296  1.00 26.89    -0.057 A 
HETATM   46  C16 MK1 B 902       3.440  39.690   0.255  1.00 29.22     0.007 A 
HETATM   47  C17 MK1 B 902       3.859  39.631  -1.066  1.00 29.22     0.001 A 
HETATM   48  C18 MK1 B 902       5.228  39.584  -1.336  1.00 30.97     0.000 A 
HETATM   49  C19 MK1 B 902       6.164  39.606  -0.295  1.00 29.25     0.001 A 
HETATM   50  C20 MK1 B 902       5.728  39.666   1.028  1.00 29.96     0.007 A 
ENDBRANCH  44  45
ENDBRANCH  28  44
ENDBRANCH  27  28
ENDBRANCH  24  27
ENDBRANCH  23  24
ENDBRANCH   4  23
TORSDOF 14
ENDMDL
MODEL 8
REMARK VINA RESULT:      -4.6      2.909      3.971
REMARK  14 active torsions:
REMARK  status: ('A' for Active; 'I' for Inactive)
REMARK    1  A    between atoms: N1_1  and  C31_43 
REMARK    2  A    between atoms: C2_3  and  C3_4 
REMARK       I    between atoms: C3_4  and  N2_6 
REMARK    3  A    between atoms: N2_6  and  C4_8 
REMARK    4  A    between atoms: N3_12  and  C10_15 
REMARK    5  A    between atoms: C10_15  and  C11_16 
REMARK    6  A    between atoms: C11_16  and  O2_17 
REMARK    7  A    between atoms: C11_16  and  C12_19 
REMARK    8  A    between atoms: C12_19  and  C13_20 
REMARK    9  A    between atoms: C13_20  and  C21_28 
REMARK   10  A    between atoms: C13_20  and  C14_21 
REMARK   11  A    between atoms: C14_21  and  C15_22 
REMARK       I    between atoms: C21_28  and  N4_30 
REMARK   12  A    between atoms: N4_30  and  C22_32 
REMARK   13  A    between atoms: C23_33  and  O4_34 
REMARK   14  A    between atoms: C31_43  and  C32_44 
ROOT
HETATM    1  N1  MK1 B 902      25.924  17.082  15.449  1.00 28.25     0.096 N 
HETATM    2  C1  MK1 B 902      25.139  15.961  16.031  1.00 30.30     0.307 C 
HETATM    3  C2  MK1 B 902      25.248  14.553  15.481  1.00 27.27     0.200 C 
HETATM    4  N3  MK1 B 902      24.850  14.755  14.043  1.00 28.91    -0.395 N 
HETATM    5  C8  MK1 B 902      25.346  15.955  13.324  1.00 26.24     0.148 C 
HETATM    6  C9  MK1 B 902      25.516  17.231  14.124  1.00 27.47     0.292 C 
ENDROOT
BRANCH   1   7
HETATM    7  C31 MK1 B 902      25.984  18.331  16.218  1.00 36.25     0.312 C 
BRANCH   7   8
HETATM    8  C32 MK1 B 902      26.481  19.636  15.584  1.00 42.75    -0.015 A 
HETATM    9  C36 MK1 B 902      27.843  19.813  15.468  1.00 44.71     0.011 A 
HETATM   10  C35 MK1 B 902      28.300  21.004  14.911  1.00 49.34     0.018 A 
HETATM   11  C34 MK1 B 902      27.385  21.976  14.494  1.00 50.60     0.087 A 
HETATM   12  N5  MK1 B 902      25.997  21.877  14.575  1.00 51.38    -0.375 N 
HETATM   13  C33 MK1 B 902      25.617  20.650  15.145  1.00 47.41     0.096 A 
HETATM   14  H5  MK1 B 902      25.346  22.597  14.264  1.00  0.00     0.164 HD
ENDBRANCH   7   8
ENDBRANCH   1   7
BRANCH   3  15
HETATM   15  C3  MK1 B 902      24.292  13.672  16.238  1.00 28.85     0.242 C 
HETATM   16  O1  MK1 B 902      24.697  12.669  16.812  1.00 29.59    -0.271 OA
HETATM   17  N2  MK1 B 902      23.022  14.027  16.236  1.00 22.29    -0.351 N 
HETATM   18  H2  MK1 B 902      22.806  14.844  15.664  1.00  0.00     0.163 HD
BRANCH  17  19
HETATM   19  C4  MK1 B 902      21.899  13.451  16.905  1.00 23.47     0.022 C 
HETATM   20  C7  MK1 B 902      21.570  12.100  16.440  1.00 22.75     0.037 C 
HETATM   21  C5  MK1 B 902      20.670  14.299  16.532  1.00 27.66     0.037 C 
HETATM   22  C6  MK1 B 902      22.049  13.398  18.282  1.00 21.71     0.037 C 
ENDBRANCH  17  19
ENDBRANCH   3  15
BRANCH   4  23
HETATM   23  C10 MK1 B 902      24.925  13.609  13.159  1.00 20.86     0.149 C 
BRANCH  23  24
HETATM   24  C11 MK1 B 902      23.696  13.427  12.266  1.00 21.68     0.136 C 
BRANCH  24  25
HETATM   25  O2  MK1 B 902      24.234  12.373  11.526  1.00 15.87    -0.394 OA
HETATM   26  H2  MK1 B 902      25.118  12.217  11.836  1.00  0.00     0.210 HD
ENDBRANCH  24  25
BRANCH  24  27
HETATM   27  C12 MK1 B 902      22.312  12.990  12.779  1.00 21.49     0.047 C 
BRANCH  27  28
HETATM   28  C13 MK1 B 902      21.033  13.451  12.066  1.00 26.89     0.084 C 
BRANCH  28  29
HETATM   29  C21 MK1 B 902      20.266  14.489  12.876  1.00 29.35     0.222 C 
HETATM   30  N4  MK1 B 902      20.915  15.629  13.101  1.00 31.19    -0.350 N 
HETATM   31  H4  MK1 B 902      21.922  15.667  12.949  1.00  0.00     0.163 HD
HETATM   32  O3  MK1 B 902      19.082  14.297  13.189  1.00 32.66    -0.273 OA
BRANCH  30  33
HETATM   33  C22 MK1 B 902      20.222  16.821  13.559  1.00 29.22     0.147 C 
HETATM   34  C30 MK1 B 902      20.966  17.783  14.521  1.00 31.86    -0.027 A 
HETATM   35  C29 MK1 B 902      21.829  17.587  15.552  1.00 27.70     0.010 A 
HETATM   36  C25 MK1 B 902      20.626  19.267  14.203  1.00 31.29    -0.047 A 
HETATM   37  C28 MK1 B 902      22.369  18.649  16.264  1.00 29.01     0.001 A 
HETATM   38  C27 MK1 B 902      22.066  19.984  15.959  1.00 28.00     0.001 A 
HETATM   39  C26 MK1 B 902      21.185  20.300  14.918  1.00 32.00     0.008 A 
HETATM   40  C24 MK1 B 902      19.695  19.109  13.026  1.00 32.05     0.073 C 
HETATM   41  C23 MK1 B 902      19.845  17.738  12.408  1.00 28.82     0.149 C 
BRANCH  41  42
HETATM   42  O4  MK1 B 902      20.828  17.672  11.385  1.00 28.32    -0.393 OA
HETATM   43  H4  MK1 B 902      21.352  16.885  11.483  1.00  0.00     0.210 HD
ENDBRANCH  41  42
ENDBRANCH  30  33
ENDBRANCH  28  29
BRANCH  28  44
HETATM   44  C14 MK1 B 902      20.091  12.278  11.742  1.00 28.67     0.052 C 
BRANCH  44  45
HETATM   45  C15 MK1 B 902      19.743  12.210  10.301  1.00 26.89    -0.057 A 
HETATM   46  C16 MK1 B 902      20.087  11.122   9.494  1.00 29.22     0.007 A 
HETATM   47  C17 MK1 B 902      19.773  11.118   8.143  1.00 29.22     0.001 A 
HETATM   48  C18 MK1 B 902      19.110  12.221   7.603  1.00 30.97     0.000 A 
HETATM   49  C19 MK1 B 902      18.757  13.310   8.409  1.00 29.25     0.001 A 
HETATM   50  C20 MK1 B 902      19.078  13.300   9.767  1.00 29.96     0.007 A 
ENDBRANCH  44  45
ENDBRANCH  28  44
ENDBRANCH  27  28
ENDBRANCH  24  27
ENDBRANCH  23  24
ENDBRANCH   4  23
TORSDOF 14
ENDMDL
MODEL 9
REMARK VINA RESULT:      -4.6      3.370      7.885
REMARK  14 active torsions:
REMARK  status: ('A' for Active; 'I' for Inactive)
REMARK    1  A    between atoms: N1_1  and  C31_43 
REMARK    2  A    between atoms: C2_3  and  C3_4 
REMARK       I    between atoms: C3_4  and  N2_6 
REMARK    3  A    between atoms: N2_6  and  C4_8 
REMARK    4  A    between atoms: N3_12  and  C10_15 
REMARK    5  A    between atoms: C10_15  and  C11_16 
REMARK    6  A    between atoms: C11_16  and  O2_17 
REMARK    7  A    between atoms: C11_16  and  C12_19 
REMARK    8  A    between atoms: C12_19  and  C13_20 
REMARK    9  A    between atoms: C13_20  and  C21_28 
REMARK   10  A    between atoms: C13_20  and  C14_21 
REMARK   11  A    between atoms: C14_21  and  C15_22 
REMARK       I    between atoms: C21_28  and  N4_30 
REMARK   12  A    between atoms: N4_30  and  C22_32 
REMARK   13  A    between atoms: C23_33  and  O4_34 
REMARK   14  A    between atoms: C31_43  and  C32_44 
ROOT
HETATM    1  N1  MK1 B 902      18.040  15.522  18.072  1.00 28.25     0.096 N 
HETATM    2  C1  MK1 B 902      19.334  15.011  17.546  1.00 30.30     0.307 C 
HETATM    3  C2  MK1 B 902      20.591  15.858  17.587  1.00 27.27     0.200 C 
HETATM    4  N3  MK1 B 902      20.168  17.069  16.799  1.00 28.91    -0.395 N 
HETATM    5  C8  MK1 B 902      18.804  17.619  17.005  1.00 26.24     0.148 C 
HETATM    6  C9  MK1 B 902      17.692  16.636  17.308  1.00 27.47     0.292 C 
ENDROOT
BRANCH   1   7
HETATM    7  C31 MK1 B 902      16.960  14.546  18.263  1.00 36.25     0.312 C 
BRANCH   7   8
HETATM    8  C32 MK1 B 902      15.874  14.339  17.201  1.00 42.75    -0.015 A 
HETATM    9  C36 MK1 B 902      16.231  13.684  16.041  1.00 44.71     0.011 A 
HETATM   10  C35 MK1 B 902      15.254  13.510  15.064  1.00 49.34     0.018 A 
HETATM   11  C34 MK1 B 902      13.960  13.996  15.277  1.00 50.60     0.087 A 
HETATM   12  N5  MK1 B 902      13.518  14.666  16.416  1.00 51.38    -0.375 N 
HETATM   13  C33 MK1 B 902      14.559  14.801  17.351  1.00 47.41     0.096 A 
HETATM   14  H5  MK1 B 902      12.569  15.013  16.553  1.00  0.00     0.164 HD
ENDBRANCH   7   8
ENDBRANCH   1   7
BRANCH   3  15
HETATM   15  C3  MK1 B 902      21.704  15.087  16.930  1.00 28.85     0.242 C 
HETATM   16  O1  MK1 B 902      22.859  15.486  17.002  1.00 29.59    -0.271 OA
HETATM   17  N2  MK1 B 902      21.368  13.992  16.277  1.00 22.29    -0.351 N 
HETATM   18  H2  MK1 B 902      20.365  13.808  16.236  1.00  0.00     0.163 HD
BRANCH  17  19
HETATM   19  C4  MK1 B 902      22.183  13.022  15.618  1.00 23.47     0.022 C 
HETATM   20  C7  MK1 B 902      23.260  12.492  16.460  1.00 22.75     0.037 C 
HETATM   21  C5  MK1 B 902      22.910  13.750  14.472  1.00 27.66     0.037 C 
HETATM   22  C6  MK1 B 902      21.464  11.944  15.126  1.00 21.71     0.037 C 
ENDBRANCH  17  19
ENDBRANCH   3  15
BRANCH   4  23
HETATM   23  C10 MK1 B 902      21.110  18.166  16.699  1.00 20.86     0.149 C 
BRANCH  23  24
HETATM   24  C11 MK1 B 902      20.892  19.069  15.484  1.00 21.68     0.136 C 
BRANCH  24  25
HETATM   25  O2  MK1 B 902      21.317  20.238  16.118  1.00 15.87    -0.394 OA
HETATM   26  H2  MK1 B 902      21.338  20.933  15.470  1.00  0.00     0.210 HD
ENDBRANCH  24  25
BRANCH  24  27
HETATM   27  C12 MK1 B 902      21.667  18.938  14.160  1.00 21.49     0.047 C 
BRANCH  27  28
HETATM   28  C13 MK1 B 902      22.259  17.587  13.732  1.00 26.89     0.084 C 
BRANCH  28  29
HETATM   29  C21 MK1 B 902      23.781  17.628  13.654  1.00 29.35     0.222 C 
HETATM   30  N4  MK1 B 902      24.298  18.771  13.211  1.00 31.19    -0.350 N 
HETATM   31  H4  MK1 B 902      23.693  19.441  12.737  1.00  0.00     0.163 HD
HETATM   32  O3  MK1 B 902      24.460  16.687  14.089  1.00 32.66    -0.273 OA
BRANCH  30  33
HETATM   33  C22 MK1 B 902      25.705  19.088  13.387  1.00 29.22     0.147 C 
HETATM   34  C30 MK1 B 902      26.402  19.973  12.320  1.00 31.86    -0.027 A 
HETATM   35  C29 MK1 B 902      26.295  20.060  10.968  1.00 27.70     0.010 A 
HETATM   36  C25 MK1 B 902      27.421  20.945  12.978  1.00 31.29    -0.047 A 
HETATM   37  C28 MK1 B 902      27.049  20.966  10.234  1.00 29.01     0.001 A 
HETATM   38  C27 MK1 B 902      27.956  21.847  10.841  1.00 28.00     0.001 A 
HETATM   39  C26 MK1 B 902      28.147  21.839  12.227  1.00 32.00     0.008 A 
HETATM   40  C24 MK1 B 902      27.259  20.598  14.438  1.00 32.05     0.073 C 
HETATM   41  C23 MK1 B 902      25.959  19.863  14.669  1.00 28.82     0.149 C 
BRANCH  41  42
HETATM   42  O4  MK1 B 902      24.859  20.714  14.955  1.00 28.32    -0.393 OA
HETATM   43  H4  MK1 B 902      24.043  20.231  14.887  1.00  0.00     0.210 HD
ENDBRANCH  41  42
ENDBRANCH  30  33
ENDBRANCH  28  29
BRANCH  28  44
HETATM   44  C14 MK1 B 902      21.704  17.111  12.378  1.00 28.67     0.052 C 
BRANCH  44  45
HETATM   45  C15 MK1 B 902      20.772  15.964  12.519  1.00 26.89    -0.057 A 
HETATM   46  C16 MK1 B 902      19.863  15.858  13.573  1.00 29.22     0.007 A 
HETATM   47  C17 MK1 B 902      19.036  14.751  13.685  1.00 29.22     0.001 A 
HETATM   48  C18 MK1 B 902      19.130  13.741  12.725  1.00 30.97     0.000 A 
HETATM   49  C19 MK1 B 902      20.035  13.847  11.662  1.00 29.25     0.001 A 
HETATM   50  C20 MK1 B 902      20.859  14.967  11.562  1.00 29.96     0.007 A 
ENDBRANCH  44  45
ENDBRANCH  28  44
ENDBRANCH  27  28
ENDBRANCH  24  27
ENDBRANCH  23  24
ENDBRANCH   4  23
TORSDOF 14
ENDMDL
MODEL 10
REMARK VINA RESULT:      -4.5      2.986      8.601
REMARK  14 active torsions:
REMARK  status: ('A' for Active; 'I' for Inactive)
REMARK    1  A    between atoms: N1_1  and  C31_43 
REMARK    2  A    between atoms: C2_3  and  C3_4 
REMARK       I    between atoms: C3_4  and  N2_6 
REMARK    3  A    between atoms: N2_6  and  C4_8 
REMARK    4  A    between atoms: N3_12  and  C10_15 
REMARK    5  A    between atoms: C10_15  and  C11_16 
REMARK    6  A    between atoms: C11_16  and  O2_17 
REMARK    7  A    between atoms: C11_16  and  C12_19 
REMARK    8  A    between atoms: C12_19  and  C13_20 
REMARK    9  A    between atoms: C13_20  and  C21_28 
REMARK   10  A    between atoms: C13_20  and  C14_21 
REMARK   11  A    between atoms: C14_21  and  C15_22 
REMARK       I    between atoms: C21_28  and  N4_30 
REMARK   12  A    between atoms: N4_30  and  C22_32 
REMARK   13  A    between atoms: C23_33  and  O4_34 
REMARK   14  A    between atoms: C31_43  and  C32_44 
ROOT
HETATM    1  N1  MK1 B 902      15.056  13.716  15.844  1.00 28.25     0.096 N 
HETATM    2  C1  MK1 B 902      16.341  13.002  16.071  1.00 30.30     0.307 C 
HETATM    3  C2  MK1 B 902      17.456  13.625  16.888  1.00 27.27     0.200 C 
HETATM    4  N3  MK1 B 902      17.712  14.900  16.131  1.00 28.91    -0.395 N 
HETATM    5  C8  MK1 B 902      16.556  15.668  15.605  1.00 26.24     0.148 C 
HETATM    6  C9  MK1 B 902      15.348  14.882  15.138  1.00 27.47     0.292 C 
ENDROOT
BRANCH   1   7
HETATM    7  C31 MK1 B 902      13.939  12.933  15.303  1.00 36.25     0.312 C 
BRANCH   7   8
HETATM    8  C32 MK1 B 902      12.557  13.560  15.082  1.00 42.75    -0.015 A 
HETATM    9  C36 MK1 B 902      11.601  12.794  14.449  1.00 44.71     0.011 A 
HETATM   10  C35 MK1 B 902      10.350  13.365  14.229  1.00 49.34     0.018 A 
HETATM   11  C34 MK1 B 902      10.099  14.676  14.644  1.00 50.60     0.087 A 
HETATM   12  N5  MK1 B 902      11.007  15.516  15.288  1.00 51.38    -0.375 N 
HETATM   13  C33 MK1 B 902      12.239  14.868  15.474  1.00 47.41     0.096 A 
HETATM   14  H5  MK1 B 902      10.804  16.470  15.584  1.00  0.00     0.164 HD
ENDBRANCH   7   8
ENDBRANCH   1   7
BRANCH   3  15
HETATM   15  C3  MK1 B 902      18.632  12.687  16.878  1.00 28.85     0.242 C 
HETATM   16  O1  MK1 B 902      19.237  12.444  17.914  1.00 29.59    -0.271 OA
HETATM   17  N2  MK1 B 902      18.973  12.167  15.715  1.00 22.29    -0.351 N 
HETATM   18  H2  MK1 B 902      18.431  12.504  14.920  1.00  0.00     0.163 HD
BRANCH  17  19
HETATM   19  C4  MK1 B 902      19.980  11.208  15.391  1.00 23.47     0.022 C 
HETATM   20  C7  MK1 B 902      21.327  11.781  15.301  1.00 22.75     0.037 C 
HETATM   21  C5  MK1 B 902      19.678  10.703  13.968  1.00 27.66     0.037 C 
HETATM   22  C6  MK1 B 902      20.032  10.145  16.279  1.00 21.71     0.037 C 
ENDBRANCH  17  19
ENDBRANCH   3  15
BRANCH   4  23
HETATM   23  C10 MK1 B 902      18.682  15.825  16.684  1.00 20.86     0.149 C 
BRANCH  23  24
HETATM   24  C11 MK1 B 902      18.919  17.070  15.828  1.00 21.68     0.136 C 
BRANCH  24  25
HETATM   25  O2  MK1 B 902      18.977  17.955  16.906  1.00 15.87    -0.394 OA
HETATM   26  H2  MK1 B 902      18.121  17.974  17.317  1.00  0.00     0.210 HD
ENDBRANCH  24  25
BRANCH  24  27
HETATM   27  C12 MK1 B 902      20.169  17.296  14.958  1.00 21.49     0.047 C 
BRANCH  27  28
HETATM   28  C13 MK1 B 902      20.046  17.914  13.558  1.00 26.89     0.084 C 
BRANCH  28  29
HETATM   29  C21 MK1 B 902      20.667  17.028  12.485  1.00 29.35     0.222 C 
HETATM   30  N4  MK1 B 902      20.478  15.721  12.645  1.00 31.19    -0.350 N 
HETATM   31  H4  MK1 B 902      20.162  15.370  13.549  1.00  0.00     0.163 HD
HETATM   32  O3  MK1 B 902      21.204  17.529  11.485  1.00 32.66    -0.273 OA
BRANCH  30  33
HETATM   33  C22 MK1 B 902      20.711  14.780  11.562  1.00 29.22     0.147 C 
HETATM   34  C30 MK1 B 902      21.769  13.665  11.769  1.00 31.86    -0.027 A 
HETATM   35  C29 MK1 B 902      22.976  13.630  12.392  1.00 27.70     0.010 A 
HETATM   36  C25 MK1 B 902      21.311  12.331  11.112  1.00 31.29    -0.047 A 
HETATM   37  C28 MK1 B 902      23.740  12.471  12.437  1.00 29.01     0.001 A 
HETATM   38  C27 MK1 B 902      23.310  11.270  11.853  1.00 28.00     0.001 A 
HETATM   39  C26 MK1 B 902      22.084  11.196  11.183  1.00 32.00     0.008 A 
HETATM   40  C24 MK1 B 902      19.964  12.723  10.558  1.00 32.05     0.073 C 
HETATM   41  C23 MK1 B 902      19.462  13.985  11.220  1.00 28.82     0.149 C 
BRANCH  41  42
HETATM   42  O4  MK1 B 902      18.690  13.754  12.390  1.00 28.32    -0.393 OA
HETATM   43  H4  MK1 B 902      19.055  13.030  12.887  1.00  0.00     0.210 HD
ENDBRANCH  41  42
ENDBRANCH  30  33
ENDBRANCH  28  29
BRANCH  28  44
HETATM   44  C14 MK1 B 902      20.684  19.312  13.480  1.00 28.67     0.052 C 
BRANCH  44  45
HETATM   45  C15 MK1 B 902      21.781  19.492  14.464  1.00 26.89    -0.057 A 
HETATM   46  C16 MK1 B 902      23.085  19.052  14.226  1.00 29.22     0.007 A 
HETATM   47  C17 MK1 B 902      24.070  19.208  15.190  1.00 29.22     0.001 A 
HETATM   48  C18 MK1 B 902      23.734  19.812  16.404  1.00 30.97     0.000 A 
HETATM   49  C19 MK1 B 902      22.430  20.261  16.643  1.00 29.25     0.001 A 
HETATM   50  C20 MK1 B 902      21.450  20.097  15.664  1.00 29.96     0.007 A 
ENDBRANCH  44  45
ENDBRANCH  28  44
ENDBRANCH  27  28
ENDBRANCH  24  27
ENDBRANCH  23  24
ENDBRANCH   4  23
TORSDOF 14
ENDMDL
MODEL 11
REMARK VINA RESULT:      -4.4      9.570     14.718
REMARK  14 active torsions:
REMARK  status: ('A' for Active; 'I' for Inactive)
REMARK    1  A    between atoms: N1_1  and  C31_43 
REMARK    2  A    between atoms: C2_3  and  C3_4 
REMARK       I    between atoms: C3_4  and  N2_6 
REMARK    3  A    between atoms: N2_6  and  C4_8 
REMARK    4  A    between atoms: N3_12  and  C10_15 
REMARK    5  A    between atoms: C10_15  and  C11_16 
REMARK    6  A    between atoms: C11_16  and  O2_17 
REMARK    7  A    between atoms: C11_16  and  C12_19 
REMARK    8  A    between atoms: C12_19  and  C13_20 
REMARK    9  A    between atoms: C13_20  and  C21_28 
REMARK   10  A    between atoms: C13_20  and  C14_21 
REMARK   11  A    between atoms: C14_21  and  C15_22 
REMARK       I    between atoms: C21_28  and  N4_30 
REMARK   12  A    between atoms: N4_30  and  C22_32 
REMARK   13  A    between atoms: C23_33  and  O4_34 
REMARK   14  A    between atoms: C31_43  and  C32_44 
ROOT
HETATM    1  N1  MK1 B 902      27.368  13.111  -1.317  1.00 28.25     0.096 N 
HETATM    2  C1  MK1 B 902      28.035  12.563  -0.106  1.00 30.30     0.307 C 
HETATM    3  C2  MK1 B 902      27.367  11.506   0.752  1.00 27.27     0.200 C 
HETATM    4  N3  MK1 B 902      26.089  12.197   1.146  1.00 28.91    -0.395 N 
HETATM    5  C8  MK1 B 902      25.366  13.004   0.132  1.00 26.24     0.148 C 
HETATM    6  C9  MK1 B 902      26.198  13.742  -0.898  1.00 27.47     0.292 C 
ENDROOT
BRANCH   1   7
HETATM    7  C31 MK1 B 902      28.194  13.899  -2.241  1.00 36.25     0.312 C 
BRANCH   7   8
HETATM    8  C32 MK1 B 902      28.306  13.529  -3.725  1.00 42.75    -0.015 A 
HETATM    9  C36 MK1 B 902      29.546  13.155  -4.198  1.00 44.71     0.011 A 
HETATM   10  C35 MK1 B 902      29.659  12.838  -5.549  1.00 49.34     0.018 A 
HETATM   11  C34 MK1 B 902      28.535  12.907  -6.378  1.00 50.60     0.087 A 
HETATM   12  N5  MK1 B 902      27.250  13.275  -5.981  1.00 51.38    -0.375 N 
HETATM   13  C33 MK1 B 902      27.220  13.578  -4.610  1.00 47.41     0.096 A 
HETATM   14  H5  MK1 B 902      26.442  13.319  -6.602  1.00  0.00     0.164 HD
ENDBRANCH   7   8
ENDBRANCH   1   7
BRANCH   3  15
HETATM   15  C3  MK1 B 902      28.263  11.210   1.923  1.00 28.85     0.242 C 
HETATM   16  O1  MK1 B 902      28.660  10.070   2.125  1.00 29.59    -0.271 OA
HETATM   17  N2  MK1 B 902      28.577  12.223   2.707  1.00 22.29    -0.351 N 
HETATM   18  H2  MK1 B 902      28.126  13.106   2.467  1.00  0.00     0.163 HD
BRANCH  17  19
HETATM   19  C4  MK1 B 902      29.446  12.281   3.839  1.00 23.47     0.022 C 
HETATM   20  C7  MK1 B 902      28.911  11.604   5.024  1.00 22.75     0.037 C 
HETATM   21  C5  MK1 B 902      29.548  13.761   4.251  1.00 27.66     0.037 C 
HETATM   22  C6  MK1 B 902      30.707  11.762   3.590  1.00 21.71     0.037 C 
ENDBRANCH  17  19
ENDBRANCH   3  15
BRANCH   4  23
HETATM   23  C10 MK1 B 902      25.128  11.437   1.919  1.00 20.86     0.149 C 
BRANCH  23  24
HETATM   24  C11 MK1 B 902      25.136  11.754   3.416  1.00 21.68     0.136 C 
BRANCH  24  25
HETATM   25  O2  MK1 B 902      25.750  13.000   3.277  1.00 15.87    -0.394 OA
HETATM   26  H2  MK1 B 902      25.458  13.552   3.993  1.00  0.00     0.210 HD
ENDBRANCH  24  25
BRANCH  24  27
HETATM   27  C12 MK1 B 902      23.867  11.940   4.267  1.00 21.49     0.047 C 
BRANCH  27  28
HETATM   28  C13 MK1 B 902      23.967  12.387   5.732  1.00 26.89     0.084 C 
BRANCH  28  29
HETATM   29  C21 MK1 B 902      22.835  11.824   6.582  1.00 29.35     0.222 C 
HETATM   30  N4  MK1 B 902      22.322  12.663   7.478  1.00 31.19    -0.350 N 
HETATM   31  H4  MK1 B 902      22.837  13.510   7.718  1.00  0.00     0.163 HD
HETATM   32  O3  MK1 B 902      22.371  10.697   6.349  1.00 32.66    -0.273 OA
BRANCH  30  33
HETATM   33  C22 MK1 B 902      21.047  12.402   8.123  1.00 29.22     0.147 C 
HETATM   34  C30 MK1 B 902      20.961  12.531   9.667  1.00 31.86    -0.027 A 
HETATM   35  C29 MK1 B 902      21.817  12.225  10.676  1.00 27.70     0.010 A 
HETATM   36  C25 MK1 B 902      19.599  13.143  10.102  1.00 31.29    -0.047 A 
HETATM   37  C28 MK1 B 902      21.488  12.451  12.006  1.00 29.01     0.001 A 
HETATM   38  C27 MK1 B 902      20.261  13.017  12.386  1.00 28.00     0.001 A 
HETATM   39  C26 MK1 B 902      19.304  13.366  11.426  1.00 32.00     0.008 A 
HETATM   40  C24 MK1 B 902      18.939  13.374   8.765  1.00 32.05     0.073 C 
HETATM   41  C23 MK1 B 902      19.965  13.361   7.655  1.00 28.82     0.149 C 
BRANCH  41  42
HETATM   42  O4  MK1 B 902      20.526  14.636   7.375  1.00 28.32    -0.393 OA
HETATM   43  H4  MK1 B 902      21.445  14.651   7.615  1.00  0.00     0.210 HD
ENDBRANCH  41  42
ENDBRANCH  30  33
ENDBRANCH  28  29
BRANCH  28  44
HETATM   44  C14 MK1 B 902      23.982  13.919   5.875  1.00 28.67     0.052 C 
BRANCH  44  45
HETATM   45  C15 MK1 B 902      25.303  14.436   6.312  1.00 26.89    -0.057 A 
HETATM   46  C16 MK1 B 902      25.776  15.698   5.945  1.00 29.22     0.007 A 
HETATM   47  C17 MK1 B 902      27.033  16.125   6.346  1.00 29.22     0.001 A 
HETATM   48  C18 MK1 B 902      27.819  15.270   7.121  1.00 30.97     0.000 A 
HETATM   49  C19 MK1 B 902      27.346  14.007   7.497  1.00 29.25     0.001 A 
HETATM   50  C20 MK1 B 902      26.079  13.591   7.087  1.00 29.96     0.007 A 
ENDBRANCH  44  45
ENDBRANCH  28  44
ENDBRANCH  27  28
ENDBRANCH  24  27
ENDBRANCH  23  24
ENDBRANCH   4  23
TORSDOF 14
ENDMDL
MODEL 12
REMARK VINA RESULT:      -4.3      3.014      6.932
REMARK  14 active torsions:
REMARK  status: ('A' for Active; 'I' for Inactive)
REMARK    1  A    between atoms: N1_1  and  C31_43 
REMARK    2  A    between atoms: C2_3  and  C3_4 
REMARK       I    between atoms: C3_4  and  N2_6 
REMARK    3  A    between atoms: N2_6  and  C4_8 
REMARK    4  A    between atoms: N3_12  and  C10_15 
REMARK    5  A    between atoms: C10_15  and  C11_16 
REMARK    6  A    between atoms: C11_16  and  O2_17 
REMARK    7  A    between atoms: C11_16  and  C12_19 
REMARK    8  A    between atoms: C12_19  and  C13_20 
REMARK    9  A    between atoms: C13_20  and  C21_28 
REMARK   10  A    between atoms: C13_20  and  C14_21 
REMARK   11  A    between atoms: C14_21  and  C15_22 
REMARK       I    between atoms: C21_28  and  N4_30 
REMARK   12  A    between atoms: N4_30  and  C22_32 
REMARK   13  A    between atoms: C23_33  and  O4_34 
REMARK   14  A    between atoms: C31_43  and  C32_44 
ROOT
HETATM    1  N1  MK1 B 902      26.424  18.412  13.918  1.00 28.25     0.096 N 
HETATM    2  C1  MK1 B 902      24.993  18.724  14.179  1.00 30.30     0.307 C 
HETATM    3  C2  MK1 B 902      24.148  17.848  15.082  1.00 27.27     0.200 C 
HETATM    4  N3  MK1 B 902      24.259  16.511  14.402  1.00 28.91    -0.395 N 
HETATM    5  C8  MK1 B 902      25.572  16.091  13.853  1.00 26.24     0.148 C 
HETATM    6  C9  MK1 B 902      26.471  17.171  13.285  1.00 27.47     0.292 C 
ENDROOT
BRANCH   1   7
HETATM    7  C31 MK1 B 902      27.234  19.458  13.281  1.00 36.25     0.312 C 
BRANCH   7   8
HETATM    8  C32 MK1 B 902      27.714  20.685  14.065  1.00 42.75    -0.015 A 
HETATM    9  C36 MK1 B 902      28.628  20.481  15.076  1.00 44.71     0.011 A 
HETATM   10  C35 MK1 B 902      29.053  21.588  15.805  1.00 49.34     0.018 A 
HETATM   11  C34 MK1 B 902      28.549  22.857  15.502  1.00 50.60     0.087 A 
HETATM   12  N5  MK1 B 902      27.625  23.150  14.500  1.00 51.38    -0.375 N 
HETATM   13  C33 MK1 B 902      27.249  21.984  13.813  1.00 47.41     0.096 A 
HETATM   14  H5  MK1 B 902      27.270  24.084  14.294  1.00  0.00     0.164 HD
ENDBRANCH   7   8
ENDBRANCH   1   7
BRANCH   3  15
HETATM   15  C3  MK1 B 902      22.744  18.391  15.091  1.00 28.85     0.242 C 
HETATM   16  O1  MK1 B 902      22.277  18.882  16.111  1.00 29.59    -0.271 OA
HETATM   17  N2  MK1 B 902      22.060  18.296  13.968  1.00 22.29    -0.351 N 
HETATM   18  H2  MK1 B 902      22.540  17.805  13.213  1.00  0.00     0.163 HD
BRANCH  17  19
HETATM   19  C4  MK1 B 902      20.753  18.770  13.639  1.00 23.47     0.022 C 
HETATM   20  C7  MK1 B 902      19.750  18.486  14.670  1.00 22.75     0.037 C 
HETATM   21  C5  MK1 B 902      20.282  17.971  12.410  1.00 27.66     0.037 C 
HETATM   22  C6  MK1 B 902      20.713  20.130  13.374  1.00 21.71     0.037 C 
ENDBRANCH  17  19
ENDBRANCH   3  15
BRANCH   4  23
HETATM   23  C10 MK1 B 902      23.632  15.375  15.050  1.00 20.86     0.149 C 
BRANCH  23  24
HETATM   24  C11 MK1 B 902      22.202  15.100  14.585  1.00 21.68     0.136 C 
BRANCH  24  25
HETATM   25  O2  MK1 B 902      22.494  15.180  13.222  1.00 15.87    -0.394 OA
HETATM   26  H2  MK1 B 902      23.171  14.542  13.029  1.00  0.00     0.210 HD
ENDBRANCH  24  25
BRANCH  24  27
HETATM   27  C12 MK1 B 902      21.450  13.779  14.834  1.00 21.49     0.047 C 
BRANCH  27  28
HETATM   28  C13 MK1 B 902      19.992  13.613  14.384  1.00 26.89     0.084 C 
BRANCH  28  29
HETATM   29  C21 MK1 B 902      19.874  12.761  13.125  1.00 29.35     0.222 C 
HETATM   30  N4  MK1 B 902      20.753  13.038  12.165  1.00 31.19    -0.350 N 
HETATM   31  H4  MK1 B 902      21.273  13.915  12.204  1.00  0.00     0.163 HD
HETATM   32  O3  MK1 B 902      19.081  11.810  13.079  1.00 32.66    -0.273 OA
BRANCH  30  33
HETATM   33  C22 MK1 B 902      20.989  12.123  11.063  1.00 29.22     0.147 C 
HETATM   34  C30 MK1 B 902      20.268  12.388   9.715  1.00 31.86    -0.027 A 
HETATM   35  C29 MK1 B 902      19.028  12.846   9.396  1.00 27.70     0.010 A 
HETATM   36  C25 MK1 B 902      21.190  12.048   8.510  1.00 31.29    -0.047 A 
HETATM   37  C28 MK1 B 902      18.625  13.000   8.077  1.00 29.01     0.001 A 
HETATM   38  C27 MK1 B 902      19.471  12.703   6.998  1.00 28.00     0.001 A 
HETATM   39  C26 MK1 B 902      20.767  12.221   7.213  1.00 32.00     0.008 A 
HETATM   40  C24 MK1 B 902      22.449  11.611   9.217  1.00 32.05     0.073 C 
HETATM   41  C23 MK1 B 902      22.451  12.094  10.649  1.00 28.82     0.149 C 
BRANCH  41  42
HETATM   42  O4  MK1 B 902      23.036  13.376  10.824  1.00 28.32    -0.393 OA
HETATM   43  H4  MK1 B 902      23.868  13.299  11.277  1.00  0.00     0.210 HD
ENDBRANCH  41  42
ENDBRANCH  30  33
ENDBRANCH  28  29
BRANCH  28  44
HETATM   44  C14 MK1 B 902      19.300  14.965  14.136  1.00 28.67     0.052 C 
BRANCH  44  45
HETATM   45  C15 MK1 B 902      18.126  15.172  15.020  1.00 26.89    -0.057 A 
HETATM   46  C16 MK1 B 902      16.812  15.112  14.551  1.00 29.22     0.007 A 
HETATM   47  C17 MK1 B 902      15.745  15.349  15.405  1.00 29.22     0.001 A 
HETATM   48  C18 MK1 B 902      16.009  15.650  16.743  1.00 30.97     0.000 A 
HETATM   49  C19 MK1 B 902      17.324  15.703  17.219  1.00 29.25     0.001 A 
HETATM   50  C20 MK1 B 902      18.387  15.462  16.348  1.00 29.96     0.007 A 
ENDBRANCH  44  45
ENDBRANCH  28  44
ENDBRANCH  27  28
ENDBRANCH  24  27
ENDBRANCH  23  24
ENDBRANCH   4  23
TORSDOF 14
ENDMDL
MODEL 13
REMARK VINA RESULT:      -4.3     26.030     28.477
REMARK  14 active torsions:
REMARK  status: ('A' for Active; 'I' for Inactive)
REMARK    1  A    between atoms: N1_1  and  C31_43 
REMARK    2  A    between atoms: C2_3  and  C3_4 
REMARK       I    between atoms: C3_4  and  N2_6 
REMARK    3  A    between atoms: N2_6  and  C4_8 
REMARK    4  A    between atoms: N3_12  and  C10_15 
REMARK    5  A    between atoms: C10_15  and  C11_16 
REMARK    6  A    between atoms: C11_16  and  O2_17 
REMARK    7  A    between atoms: C11_16  and  C12_19 
REMARK    8  A    between atoms: C12_19  and  C13_20 
REMARK    9  A    between atoms: C13_20  and  C21_28 
REMARK   10  A    between atoms: C13_20  and  C14_21 
REMARK   11  A    between atoms: C14_21  and  C15_22 
REMARK       I    between atoms: C21_28  and  N4_30 
REMARK   12  A    between atoms: N4_30  and  C22_32 
REMARK   13  A    between atoms: C23_33  and  O4_34 
REMARK   14  A    between atoms: C31_43  and  C32_44 
ROOT
HETATM    1  N1  MK1 B 902       1.902  33.735   7.574  1.00 28.25     0.096 N 
HETATM    2  C1  MK1 B 902       2.865  34.422   8.476  1.00 30.30     0.307 C 
HETATM    3  C2  MK1 B 902       2.892  35.933   8.596  1.00 27.27     0.200 C 
HETATM    4  N3  MK1 B 902       3.148  36.348   7.173  1.00 28.91    -0.395 N 
HETATM    5  C8  MK1 B 902       2.451  35.627   6.078  1.00 26.24     0.148 C 
HETATM    6  C9  MK1 B 902       2.184  34.148   6.272  1.00 27.47     0.292 C 
ENDROOT
BRANCH   1   7
HETATM    7  C31 MK1 B 902       1.745  32.285   7.738  1.00 36.25     0.312 C 
BRANCH   7   8
HETATM    8  C32 MK1 B 902       2.591  31.293   6.930  1.00 42.75    -0.015 A 
HETATM    9  C36 MK1 B 902       1.952  30.551   5.959  1.00 44.71     0.011 A 
HETATM   10  C35 MK1 B 902       2.711  29.634   5.235  1.00 49.34     0.018 A 
HETATM   11  C34 MK1 B 902       4.075  29.490   5.507  1.00 50.60     0.087 A 
HETATM   12  N5  MK1 B 902       4.795  30.198   6.468  1.00 51.38    -0.375 N 
HETATM   13  C33 MK1 B 902       3.962  31.099   7.151  1.00 47.41     0.096 A 
HETATM   14  H5  MK1 B 902       5.791  30.078   6.650  1.00  0.00     0.164 HD
ENDBRANCH   7   8
ENDBRANCH   1   7
BRANCH   3  15
HETATM   15  C3  MK1 B 902       4.007  36.314   9.531  1.00 28.85     0.242 C 
HETATM   16  O1  MK1 B 902       3.997  35.931  10.694  1.00 29.59    -0.271 OA
HETATM   17  N2  MK1 B 902       4.964  37.077   9.041  1.00 22.29    -0.351 N 
HETATM   18  H2  MK1 B 902       4.818  37.382   8.079  1.00  0.00     0.163 HD
BRANCH  17  19
HETATM   19  C4  MK1 B 902       6.172  37.546   9.642  1.00 23.47     0.022 C 
HETATM   20  C7  MK1 B 902       5.956  38.560  10.679  1.00 22.75     0.037 C 
HETATM   21  C5  MK1 B 902       6.965  38.278   8.544  1.00 27.66     0.037 C 
HETATM   22  C6  MK1 B 902       6.938  36.533  10.196  1.00 21.71     0.037 C 
ENDBRANCH  17  19
ENDBRANCH   3  15
BRANCH   4  23
HETATM   23  C10 MK1 B 902       3.151  37.767   6.878  1.00 20.86     0.149 C 
BRANCH  23  24
HETATM   24  C11 MK1 B 902       2.790  38.106   5.431  1.00 21.68     0.136 C 
BRANCH  24  25
HETATM   25  O2  MK1 B 902       2.045  39.243   5.750  1.00 15.87    -0.394 OA
HETATM   26  H2  MK1 B 902       1.510  39.040   6.509  1.00  0.00     0.210 HD
ENDBRANCH  24  25
BRANCH  24  27
HETATM   27  C12 MK1 B 902       3.818  38.498   4.353  1.00 21.49     0.047 C 
BRANCH  27  28
HETATM   28  C13 MK1 B 902       3.420  38.535   2.871  1.00 26.89     0.084 C 
BRANCH  28  29
HETATM   29  C21 MK1 B 902       3.024  37.159   2.349  1.00 29.35     0.222 C 
HETATM   30  N4  MK1 B 902       3.937  36.205   2.510  1.00 31.19    -0.350 N 
HETATM   31  H4  MK1 B 902       4.897  36.467   2.733  1.00  0.00     0.163 HD
HETATM   32  O3  MK1 B 902       1.881  36.953   1.916  1.00 32.66    -0.273 OA
BRANCH  30  33
HETATM   33  C22 MK1 B 902       3.599  34.798   2.374  1.00 29.22     0.147 C 
HETATM   34  C30 MK1 B 902       3.593  34.175   0.954  1.00 31.86    -0.027 A 
HETATM   35  C29 MK1 B 902       3.214  34.639  -0.266  1.00 27.70     0.010 A 
HETATM   36  C25 MK1 B 902       4.141  32.719   0.979  1.00 31.29    -0.047 A 
HETATM   37  C28 MK1 B 902       3.319  33.858  -1.409  1.00 29.01     0.001 A 
HETATM   38  C27 MK1 B 902       3.828  32.551  -1.375  1.00 28.00     0.001 A 
HETATM   39  C26 MK1 B 902       4.243  31.972  -0.171  1.00 32.00     0.008 A 
HETATM   40  C24 MK1 B 902       4.476  32.556   2.441  1.00 32.05     0.073 C 
HETATM   41  C23 MK1 B 902       4.577  33.904   3.118  1.00 28.82     0.149 C 
BRANCH  41  42
HETATM   42  O4  MK1 B 902       5.880  34.467   3.088  1.00 28.32    -0.393 OA
HETATM   43  H4  MK1 B 902       5.999  34.979   2.296  1.00  0.00     0.210 HD
ENDBRANCH  41  42
ENDBRANCH  30  33
ENDBRANCH  28  29
BRANCH  28  44
HETATM   44  C14 MK1 B 902       4.539  39.102   1.981  1.00 28.67     0.052 C 
BRANCH  44  45
HETATM   45  C15 MK1 B 902       4.186  39.079   0.539  1.00 26.89    -0.057 A 
HETATM   46  C16 MK1 B 902       4.833  38.250  -0.380  1.00 29.22     0.007 A 
HETATM   47  C17 MK1 B 902       4.495  38.288  -1.725  1.00 29.22     0.001 A 
HETATM   48  C18 MK1 B 902       3.497  39.171  -2.143  1.00 30.97     0.000 A 
HETATM   49  C19 MK1 B 902       2.840  39.998  -1.223  1.00 29.25     0.001 A 
HETATM   50  C20 MK1 B 902       3.191  39.948   0.126  1.00 29.96     0.007 A 
ENDBRANCH  44  45
ENDBRANCH  28  44
ENDBRANCH  27  28
ENDBRANCH  24  27
ENDBRANCH  23  24
ENDBRANCH   4  23
TORSDOF 14
ENDMDL
MODEL 14
REMARK VINA RESULT:      -4.2     26.292     29.123
REMARK  14 active torsions:
REMARK  status: ('A' for Active; 'I' for Inactive)
REMARK    1  A    between atoms: N1_1  and  C31_43 
REMARK    2  A    between atoms: C2_3  and  C3_4 
REMARK       I    between atoms: C3_4  and  N2_6 
REMARK    3  A    between atoms: N2_6  and  C4_8 
REMARK    4  A    between atoms: N3_12  and  C10_15 
REMARK    5  A    between atoms: C10_15  and  C11_16 
REMARK    6  A    between atoms: C11_16  and  O2_17 
REMARK    7  A    between atoms: C11_16  and  C12_19 
REMARK    8  A    between atoms: C12_19  and  C13_20 
REMARK    9  A    between atoms: C13_20  and  C21_28 
REMARK   10  A    between atoms: C13_20  and  C14_21 
REMARK   11  A    between atoms: C14_21  and  C15_22 
REMARK       I    between atoms: C21_28  and  N4_30 
REMARK   12  A    between atoms: N4_30  and  C22_32 
REMARK   13  A    between atoms: C23_33  and  O4_34 
REMARK   14  A    between atoms: C31_43  and  C32_44 
ROOT
HETATM    1  N1  MK1 B 902       2.937  32.846   2.108  1.00 28.25     0.096 N 
HETATM    2  C1  MK1 B 902       2.917  34.090   1.293  1.00 30.30     0.307 C 
HETATM    3  C2  MK1 B 902       2.633  34.053  -0.195  1.00 27.27     0.200 C 
HETATM    4  N3  MK1 B 902       3.722  33.140  -0.691  1.00 28.91    -0.395 N 
HETATM    5  C8  MK1 B 902       4.068  31.937   0.105  1.00 26.24     0.148 C 
HETATM    6  C9  MK1 B 902       3.962  32.041   1.613  1.00 27.47     0.292 C 
ENDROOT
BRANCH   1   7
HETATM    7  C31 MK1 B 902       2.926  32.998   3.568  1.00 36.25     0.312 C 
BRANCH   7   8
HETATM    8  C32 MK1 B 902       3.001  31.782   4.499  1.00 42.75    -0.015 A 
HETATM    9  C36 MK1 B 902       3.969  31.786   5.480  1.00 44.71     0.011 A 
HETATM   10  C35 MK1 B 902       4.055  30.676   6.316  1.00 49.34     0.018 A 
HETATM   11  C34 MK1 B 902       3.175  29.603   6.142  1.00 50.60     0.087 A 
HETATM   12  N5  MK1 B 902       2.172  29.519   5.178  1.00 51.38    -0.375 N 
HETATM   13  C33 MK1 B 902       2.151  30.674   4.379  1.00 47.41     0.096 A 
HETATM   14  H5  MK1 B 902       1.539  28.726   5.068  1.00  0.00     0.164 HD
ENDBRANCH   7   8
ENDBRANCH   1   7
BRANCH   3  15
HETATM   15  C3  MK1 B 902       2.745  35.453  -0.734  1.00 28.85     0.242 C 
HETATM   16  O1  MK1 B 902       2.157  35.769  -1.761  1.00 29.59    -0.271 OA
HETATM   17  N2  MK1 B 902       3.506  36.293  -0.062  1.00 22.29    -0.351 N 
HETATM   18  H2  MK1 B 902       3.994  35.885   0.737  1.00  0.00     0.163 HD
BRANCH  17  19
HETATM   19  C4  MK1 B 902       3.758  37.683  -0.271  1.00 23.47     0.022 C 
HETATM   20  C7  MK1 B 902       2.662  38.382  -0.950  1.00 22.75     0.037 C 
HETATM   21  C5  MK1 B 902       4.944  37.783  -1.249  1.00 27.66     0.037 C 
HETATM   22  C6  MK1 B 902       4.038  38.373   0.898  1.00 21.71     0.037 C 
ENDBRANCH  17  19
ENDBRANCH   3  15
BRANCH   4  23
HETATM   23  C10 MK1 B 902       3.714  32.791  -2.098  1.00 20.86     0.149 C 
BRANCH  23  24
HETATM   24  C11 MK1 B 902       2.389  32.208  -2.591  1.00 21.68     0.136 C 
BRANCH  24  25
HETATM   25  O2  MK1 B 902       2.235  33.116  -3.641  1.00 15.87    -0.394 OA
HETATM   26  H2  MK1 B 902       3.000  33.051  -4.200  1.00  0.00     0.210 HD
ENDBRANCH  24  25
BRANCH  24  27
HETATM   27  C12 MK1 B 902       2.228  30.787  -3.163  1.00 21.49     0.047 C 
BRANCH  27  28
HETATM   28  C13 MK1 B 902       2.662  30.470  -4.601  1.00 26.89     0.084 C 
BRANCH  28  29
HETATM   29  C21 MK1 B 902       2.210  29.084  -5.043  1.00 29.35     0.222 C 
HETATM   30  N4  MK1 B 902       3.104  28.113  -4.876  1.00 31.19    -0.350 N 
HETATM   31  H4  MK1 B 902       4.079  28.358  -4.704  1.00  0.00     0.163 HD
HETATM   32  O3  MK1 B 902       1.044  28.889  -5.419  1.00 32.66    -0.273 OA
BRANCH  30  33
HETATM   33  C22 MK1 B 902       2.726  26.712  -4.933  1.00 29.22     0.147 C 
HETATM   34  C30 MK1 B 902       3.261  25.850  -6.107  1.00 31.86    -0.027 A 
HETATM   35  C29 MK1 B 902       3.478  26.102  -7.425  1.00 27.70     0.010 A 
HETATM   36  C25 MK1 B 902       3.609  24.410  -5.632  1.00 31.29    -0.047 A 
HETATM   37  C28 MK1 B 902       3.983  25.131  -8.280  1.00 29.01     0.001 A 
HETATM   38  C27 MK1 B 902       4.306  23.840  -7.836  1.00 28.00     0.001 A 
HETATM   39  C26 MK1 B 902       4.117  23.473  -6.499  1.00 32.00     0.008 A 
HETATM   40  C24 MK1 B 902       3.278  24.498  -4.162  1.00 32.05     0.073 C 
HETATM   41  C23 MK1 B 902       3.209  25.941  -3.717  1.00 28.82     0.149 C 
BRANCH  41  42
HETATM   42  O4  MK1 B 902       4.450  26.464  -3.264  1.00 28.32    -0.393 OA
HETATM   43  H4  MK1 B 902       4.952  26.801  -3.998  1.00  0.00     0.210 HD
ENDBRANCH  41  42
ENDBRANCH  30  33
ENDBRANCH  28  29
BRANCH  28  44
HETATM   44  C14 MK1 B 902       4.185  30.581  -4.789  1.00 28.67     0.052 C 
BRANCH  44  45
HETATM   45  C15 MK1 B 902       4.554  31.451  -5.934  1.00 26.89    -0.057 A 
HETATM   46  C16 MK1 B 902       4.418  31.043  -7.262  1.00 29.22     0.007 A 
HETATM   47  C17 MK1 B 902       4.810  31.875  -8.301  1.00 29.22     0.001 A 
HETATM   48  C18 MK1 B 902       5.346  33.127  -7.993  1.00 30.97     0.000 A 
HETATM   49  C19 MK1 B 902       5.477  33.543  -6.662  1.00 29.25     0.001 A 
HETATM   50  C20 MK1 B 902       5.077  32.696  -5.629  1.00 29.96     0.007 A 
ENDBRANCH  44  45
ENDBRANCH  28  44
ENDBRANCH  27  28
ENDBRANCH  24  27
ENDBRANCH  23  24
ENDBRANCH   4  23
TORSDOF 14
ENDMDL
MODEL 15
REMARK VINA RESULT:      -4.0      3.489      8.375
REMARK  14 active torsions:
REMARK  status: ('A' for Active; 'I' for Inactive)
REMARK    1  A    between atoms: N1_1  and  C31_43 
REMARK    2  A    between atoms: C2_3  and  C3_4 
REMARK       I    between atoms: C3_4  and  N2_6 
REMARK    3  A    between atoms: N2_6  and  C4_8 
REMARK    4  A    between atoms: N3_12  and  C10_15 
REMARK    5  A    between atoms: C10_15  and  C11_16 
REMARK    6  A    between atoms: C11_16  and  O2_17 
REMARK    7  A    between atoms: C11_16  and  C12_19 
REMARK    8  A    between atoms: C12_19  and  C13_20 
REMARK    9  A    between atoms: C13_20  and  C21_28 
REMARK   10  A    between atoms: C13_20  and  C14_21 
REMARK   11  A    between atoms: C14_21  and  C15_22 
REMARK       I    between atoms: C21_28  and  N4_30 
REMARK   12  A    between atoms: N4_30  and  C22_32 
REMARK   13  A    between atoms: C23_33  and  O4_34 
REMARK   14  A    between atoms: C31_43  and  C32_44 
ROOT
HETATM    1  N1  MK1 B 902      18.240  16.087  18.876  1.00 28.25     0.096 N 
HETATM    2  C1  MK1 B 902      19.608  15.743  18.403  1.00 30.30     0.307 C 
HETATM    3  C2  MK1 B 902      20.830  16.471  18.926  1.00 27.27     0.200 C 
HETATM    4  N3  MK1 B 902      20.514  17.897  18.564  1.00 28.91    -0.395 N 
HETATM    5  C8  MK1 B 902      19.126  18.393  18.746  1.00 26.24     0.148 C 
HETATM    6  C9  MK1 B 902      17.996  17.411  18.513  1.00 27.47     0.292 C 
ENDROOT
BRANCH   1   7
HETATM    7  C31 MK1 B 902      17.160  15.150  18.547  1.00 36.25     0.312 C 
BRANCH   7   8
HETATM    8  C32 MK1 B 902      16.795  14.830  17.093  1.00 42.75    -0.015 A 
HETATM    9  C36 MK1 B 902      15.875  15.645  16.469  1.00 44.71     0.011 A 
HETATM   10  C35 MK1 B 902      15.525  15.348  15.155  1.00 49.34     0.018 A 
HETATM   11  C34 MK1 B 902      16.102  14.248  14.512  1.00 50.60     0.087 A 
HETATM   12  N5  MK1 B 902      17.037  13.376  15.068  1.00 51.38    -0.375 N 
HETATM   13  C33 MK1 B 902      17.336  13.744  16.390  1.00 47.41     0.096 A 
HETATM   14  H5  MK1 B 902      17.447  12.579  14.581  1.00  0.00     0.164 HD
ENDBRANCH   7   8
ENDBRANCH   1   7
BRANCH   3  15
HETATM   15  C3  MK1 B 902      22.042  15.937  18.212  1.00 28.85     0.242 C 
HETATM   16  O1  MK1 B 902      23.033  15.596  18.845  1.00 29.59    -0.271 OA
HETATM   17  N2  MK1 B 902      21.981  15.873  16.896  1.00 22.29    -0.351 N 
HETATM   18  H2  MK1 B 902      21.126  16.251  16.488  1.00  0.00     0.163 HD
BRANCH  17  19
HETATM   19  C4  MK1 B 902      22.920  15.359  15.951  1.00 23.47     0.022 C 
HETATM   20  C7  MK1 B 902      22.501  15.530  14.556  1.00 22.75     0.037 C 
HETATM   21  C5  MK1 B 902      22.974  13.834  16.155  1.00 27.66     0.037 C 
HETATM   22  C6  MK1 B 902      24.186  15.908  16.081  1.00 21.71     0.037 C 
ENDBRANCH  17  19
ENDBRANCH   3  15
BRANCH   4  23
HETATM   23  C10 MK1 B 902      21.443  18.921  19.000  1.00 20.86     0.149 C 
BRANCH  23  24
HETATM   24  C11 MK1 B 902      21.730  19.994  17.948  1.00 21.68     0.136 C 
BRANCH  24  25
HETATM   25  O2  MK1 B 902      22.085  20.981  18.869  1.00 15.87    -0.394 OA
HETATM   26  H2  MK1 B 902      22.943  21.311  18.630  1.00  0.00     0.210 HD
ENDBRANCH  24  25
BRANCH  24  27
HETATM   27  C12 MK1 B 902      22.852  19.897  16.898  1.00 21.49     0.047 C 
BRANCH  27  28
HETATM   28  C13 MK1 B 902      22.605  19.200  15.552  1.00 26.89     0.084 C 
BRANCH  28  29
HETATM   29  C21 MK1 B 902      23.794  19.335  14.610  1.00 29.35     0.222 C 
HETATM   30  N4  MK1 B 902      24.941  19.687  15.186  1.00 31.19    -0.350 N 
HETATM   31  H4  MK1 B 902      24.926  20.070  16.131  1.00  0.00     0.163 HD
HETATM   32  O3  MK1 B 902      23.692  19.020  13.415  1.00 32.66    -0.273 OA
BRANCH  30  33
HETATM   33  C22 MK1 B 902      26.213  19.539  14.501  1.00 29.22     0.147 C 
HETATM   34  C30 MK1 B 902      27.252  20.685  14.618  1.00 31.86    -0.027 A 
HETATM   35  C29 MK1 B 902      27.145  22.040  14.654  1.00 27.70     0.010 A 
HETATM   36  C25 MK1 B 902      28.699  20.122  14.714  1.00 31.29    -0.047 A 
HETATM   37  C28 MK1 B 902      28.262  22.856  14.773  1.00 29.01     0.001 A 
HETATM   38  C27 MK1 B 902      29.561  22.336  14.873  1.00 28.00     0.001 A 
HETATM   39  C26 MK1 B 902      29.785  20.955  14.842  1.00 32.00     0.008 A 
HETATM   40  C24 MK1 B 902      28.439  18.636  14.672  1.00 32.05     0.073 C 
HETATM   41  C23 MK1 B 902      26.996  18.338  15.004  1.00 28.82     0.149 C 
BRANCH  41  42
HETATM   42  O4  MK1 B 902      26.753  18.139  16.389  1.00 28.32    -0.393 OA
HETATM   43  H4  MK1 B 902      27.556  18.255  16.884  1.00  0.00     0.210 HD
ENDBRANCH  41  42
ENDBRANCH  30  33
ENDBRANCH  28  29
BRANCH  28  44
HETATM   44  C14 MK1 B 902      21.345  19.729  14.844  1.00 28.67     0.052 C 
BRANCH  44  45
HETATM   45  C15 MK1 B 902      20.454  18.637  14.379  1.00 26.89    -0.057 A 
HETATM   46  C16 MK1 B 902      19.780  17.789  15.261  1.00 29.22     0.007 A 
HETATM   47  C17 MK1 B 902      18.986  16.758  14.781  1.00 29.22     0.001 A 
HETATM   48  C18 MK1 B 902      18.874  16.582  13.401  1.00 30.97     0.000 A 
HETATM   49  C19 MK1 B 902      19.541  17.434  12.513  1.00 29.25     0.001 A 
HETATM   50  C20 MK1 B 902      20.336  18.467  13.010  1.00 29.96     0.007 A 
ENDBRANCH  44  45
ENDBRANCH  28  44
ENDBRANCH  27  28
ENDBRANCH  24  27
ENDBRANCH  23  24
ENDBRANCH   4  23
TORSDOF 14
ENDMDL
MODEL 16
REMARK VINA RESULT:      -4.0     25.329     28.788
REMARK  14 active torsions:
REMARK  status: ('A' for Active; 'I' for Inactive)
REMARK    1  A    between atoms: N1_1  and  C31_43 
REMARK    2  A    between atoms: C2_3  and  C3_4 
REMARK       I    between atoms: C3_4  and  N2_6 
REMARK    3  A    between atoms: N2_6  and  C4_8 
REMARK    4  A    between atoms: N3_12  and  C10_15 
REMARK    5  A    between atoms: C10_15  and  C11_16 
REMARK    6  A    between atoms: C11_16  and  O2_17 
REMARK    7  A    between atoms: C11_16  and  C12_19 
REMARK    8  A    between atoms: C12_19  and  C13_20 
REMARK    9  A    between atoms: C13_20  and  C21_28 
REMARK   10  A    between atoms: C13_20  and  C14_21 
REMARK   11  A    between atoms: C14_21  and  C15_22 
REMARK       I    between atoms: C21_28  and  N4_30 
REMARK   12  A    between atoms: N4_30  and  C22_32 
REMARK   13  A    between atoms: C23_33  and  O4_34 
REMARK   14  A    between atoms: C31_43  and  C32_44 
ROOT
HETATM    1  N1  MK1 B 902       1.272  30.976  -0.651  1.00 28.25     0.096 N 
HETATM    2  C1  MK1 B 902       2.296  31.290  -1.683  1.00 30.30     0.307 C 
HETATM    3  C2  MK1 B 902       2.117  30.863  -3.127  1.00 27.27     0.200 C 
HETATM    4  N3  MK1 B 902       1.979  29.370  -2.988  1.00 28.91    -0.395 N 
HETATM    5  C8  MK1 B 902       1.172  28.825  -1.868  1.00 26.24     0.148 C 
HETATM    6  C9  MK1 B 902       1.187  29.587  -0.559  1.00 27.47     0.292 C 
ENDROOT
BRANCH   1   7
HETATM    7  C31 MK1 B 902       1.381  31.672   0.637  1.00 36.25     0.312 C 
BRANCH   7   8
HETATM    8  C32 MK1 B 902       2.691  32.336   1.078  1.00 42.75    -0.015 A 
HETATM    9  C36 MK1 B 902       2.793  33.703   0.938  1.00 44.71     0.011 A 
HETATM   10  C35 MK1 B 902       3.988  34.310   1.318  1.00 49.34     0.018 A 
HETATM   11  C34 MK1 B 902       5.036  33.531   1.820  1.00 50.60     0.087 A 
HETATM   12  N5  MK1 B 902       5.014  32.148   1.992  1.00 51.38    -0.375 N 
HETATM   13  C33 MK1 B 902       3.780  31.614   1.588  1.00 47.41     0.096 A 
HETATM   14  H5  MK1 B 902       5.790  31.598   2.361  1.00  0.00     0.164 HD
ENDBRANCH   7   8
ENDBRANCH   1   7
BRANCH   3  15
HETATM   15  C3  MK1 B 902       3.343  31.272  -3.898  1.00 28.85     0.242 C 
HETATM   16  O1  MK1 B 902       4.458  30.968  -3.494  1.00 29.59    -0.271 OA
HETATM   17  N2  MK1 B 902       3.151  31.973  -4.998  1.00 22.29    -0.351 N 
HETATM   18  H2  MK1 B 902       2.178  32.217  -5.186  1.00  0.00     0.163 HD
BRANCH  17  19
HETATM   19  C4  MK1 B 902       4.086  32.444  -5.969  1.00 23.47     0.022 C 
HETATM   20  C7  MK1 B 902       5.247  33.122  -5.383  1.00 22.75     0.037 C 
HETATM   21  C5  MK1 B 902       3.372  33.536  -6.787  1.00 27.66     0.037 C 
HETATM   22  C6  MK1 B 902       4.558  31.446  -6.806  1.00 21.71     0.037 C 
ENDBRANCH  17  19
ENDBRANCH   3  15
BRANCH   4  23
HETATM   23  C10 MK1 B 902       1.697  28.610  -4.189  1.00 20.86     0.149 C 
BRANCH  23  24
HETATM   24  C11 MK1 B 902       1.866  27.098  -4.026  1.00 21.68     0.136 C 
BRANCH  24  25
HETATM   25  O2  MK1 B 902       1.463  26.785  -5.326  1.00 15.87    -0.394 OA
HETATM   26  H2  MK1 B 902       1.656  27.532  -5.881  1.00  0.00     0.210 HD
ENDBRANCH  24  25
BRANCH  24  27
HETATM   27  C12 MK1 B 902       3.215  26.402  -3.767  1.00 21.49     0.047 C 
BRANCH  27  28
HETATM   28  C13 MK1 B 902       3.299  24.872  -3.667  1.00 26.89     0.084 C 
BRANCH  28  29
HETATM   29  C21 MK1 B 902       3.895  24.248  -4.923  1.00 29.35     0.222 C 
HETATM   30  N4  MK1 B 902       3.273  24.550  -6.060  1.00 31.19    -0.350 N 
HETATM   31  H4  MK1 B 902       2.338  24.954  -6.024  1.00  0.00     0.163 HD
HETATM   32  O3  MK1 B 902       4.954  23.605  -4.866  1.00 32.66    -0.273 OA
BRANCH  30  33
HETATM   33  C22 MK1 B 902       3.894  24.315  -7.352  1.00 29.22     0.147 C 
HETATM   34  C30 MK1 B 902       3.511  23.030  -8.133  1.00 31.86    -0.027 A 
HETATM   35  C29 MK1 B 902       3.242  21.754  -7.752  1.00 27.70     0.010 A 
HETATM   36  C25 MK1 B 902       3.429  23.308  -9.661  1.00 31.29    -0.047 A 
HETATM   37  C28 MK1 B 902       2.911  20.771  -8.675  1.00 29.01     0.001 A 
HETATM   38  C27 MK1 B 902       2.827  21.037 -10.050  1.00 28.00     0.001 A 
HETATM   39  C26 MK1 B 902       3.088  22.317 -10.552  1.00 32.00     0.008 A 
HETATM   40  C24 MK1 B 902       3.750  24.781  -9.710  1.00 32.05     0.073 C 
HETATM   41  C23 MK1 B 902       3.565  25.413  -8.350  1.00 28.82     0.149 C 
BRANCH  41  42
HETATM   42  O4  MK1 B 902       2.255  25.910  -8.119  1.00 28.32    -0.393 OA
HETATM   43  H4  MK1 B 902       2.050  26.598  -8.742  1.00  0.00     0.210 HD
ENDBRANCH  41  42
ENDBRANCH  30  33
ENDBRANCH  28  29
BRANCH  28  44
HETATM   44  C14 MK1 B 902       1.927  24.230  -3.396  1.00 28.67     0.052 C 
BRANCH  44  45
HETATM   45  C15 MK1 B 902       2.034  22.964  -2.628  1.00 26.89    -0.057 A 
HETATM   46  C16 MK1 B 902       1.756  21.717  -3.191  1.00 29.22     0.007 A 
HETATM   47  C17 MK1 B 902       1.834  20.563  -2.425  1.00 29.22     0.001 A 
HETATM   48  C18 MK1 B 902       2.195  20.671  -1.080  1.00 30.97     0.000 A 
HETATM   49  C19 MK1 B 902       2.482  21.919  -0.514  1.00 29.25     0.001 A 
HETATM   50  C20 MK1 B 902       2.400  23.071  -1.297  1.00 29.96     0.007 A 
ENDBRANCH  44  45
ENDBRANCH  28  44
ENDBRANCH  27  28
ENDBRANCH  24  27
ENDBRANCH  23  24
ENDBRANCH   4  23
TORSDOF 14
ENDMDL
MODEL 17
REMARK VINA RESULT:      -3.8      3.521      8.441
REMARK  14 active torsions:
REMARK  status: ('A' for Active; 'I' for Inactive)
REMARK    1  A    between atoms: N1_1  and  C31_43 
REMARK    2  A    between atoms: C2_3  and  C3_4 
REMARK       I    between atoms: C3_4  and  N2_6 
REMARK    3  A    between atoms: N2_6  and  C4_8 
REMARK    4  A    between atoms: N3_12  and  C10_15 
REMARK    5  A    between atoms: C10_15  and  C11_16 
REMARK    6  A    between atoms: C11_16  and  O2_17 
REMARK    7  A    between atoms: C11_16  and  C12_19 
REMARK    8  A    between atoms: C12_19  and  C13_20 
REMARK    9  A    between atoms: C13_20  and  C21_28 
REMARK   10  A    between atoms: C13_20  and  C14_21 
REMARK   11  A    between atoms: C14_21  and  C15_22 
REMARK       I    between atoms: C21_28  and  N4_30 
REMARK   12  A    between atoms: N4_30  and  C22_32 
REMARK   13  A    between atoms: C23_33  and  O4_34 
REMARK   14  A    between atoms: C31_43  and  C32_44 
ROOT
HETATM    1  N1  MK1 B 902      18.720  16.046  17.955  1.00 28.25     0.096 N 
HETATM    2  C1  MK1 B 902      20.174  15.756  17.838  1.00 30.30     0.307 C 
HETATM    3  C2  MK1 B 902      21.216  16.726  18.357  1.00 27.27     0.200 C 
HETATM    4  N3  MK1 B 902      20.885  17.973  17.582  1.00 28.91    -0.395 N 
HETATM    5  C8  MK1 B 902      19.459  18.335  17.379  1.00 26.24     0.148 C 
HETATM    6  C9  MK1 B 902      18.466  17.202  17.219  1.00 27.47     0.292 C 
ENDROOT
BRANCH   1   7
HETATM    7  C31 MK1 B 902      17.791  14.938  17.700  1.00 36.25     0.312 C 
BRANCH   7   8
HETATM    8  C32 MK1 B 902      17.580  14.382  16.287  1.00 42.75    -0.015 A 
HETATM    9  C36 MK1 B 902      18.441  13.399  15.850  1.00 44.71     0.011 A 
HETATM   10  C35 MK1 B 902      18.267  12.905  14.560  1.00 49.34     0.018 A 
HETATM   11  C34 MK1 B 902      17.243  13.410  13.753  1.00 50.60     0.087 A 
HETATM   12  N5  MK1 B 902      16.332  14.401  14.116  1.00 51.38    -0.375 N 
HETATM   13  C33 MK1 B 902      16.574  14.845  15.426  1.00 47.41     0.096 A 
HETATM   14  H5  MK1 B 902      15.591  14.755  13.511  1.00  0.00     0.164 HD
ENDBRANCH   7   8
ENDBRANCH   1   7
BRANCH   3  15
HETATM   15  C3  MK1 B 902      22.579  16.177  18.034  1.00 28.85     0.242 C 
HETATM   16  O1  MK1 B 902      23.587  16.764  18.407  1.00 29.59    -0.271 OA
HETATM   17  N2  MK1 B 902      22.623  15.062  17.332  1.00 22.29    -0.351 N 
HETATM   18  H2  MK1 B 902      21.715  14.711  17.026  1.00  0.00     0.163 HD
BRANCH  17  19
HETATM   19  C4  MK1 B 902      23.739  14.265  16.930  1.00 23.47     0.022 C 
HETATM   20  C7  MK1 B 902      24.558  13.797  18.052  1.00 22.75     0.037 C 
HETATM   21  C5  MK1 B 902      24.676  15.181  16.122  1.00 27.66     0.037 C 
HETATM   22  C6  MK1 B 902      23.380  13.157  16.179  1.00 21.71     0.037 C 
ENDBRANCH  17  19
ENDBRANCH   3  15
BRANCH   4  23
HETATM   23  C10 MK1 B 902      21.638  19.173  17.889  1.00 20.86     0.149 C 
BRANCH  23  24
HETATM   24  C11 MK1 B 902      22.229  19.871  16.663  1.00 21.68     0.136 C 
BRANCH  24  25
HETATM   25  O2  MK1 B 902      22.153  21.157  17.201  1.00 15.87    -0.394 OA
HETATM   26  H2  MK1 B 902      23.016  21.550  17.146  1.00  0.00     0.210 HD
ENDBRANCH  24  25
BRANCH  24  27
HETATM   27  C12 MK1 B 902      23.666  19.653  16.153  1.00 21.49     0.047 C 
BRANCH  27  28
HETATM   28  C13 MK1 B 902      23.947  18.677  15.001  1.00 26.89     0.084 C 
BRANCH  28  29
HETATM   29  C21 MK1 B 902      25.397  18.740  14.538  1.00 29.35     0.222 C 
HETATM   30  N4  MK1 B 902      25.604  18.408  13.266  1.00 31.19    -0.350 N 
HETATM   31  H4  MK1 B 902      24.872  17.917  12.754  1.00  0.00     0.163 HD
HETATM   32  O3  MK1 B 902      26.280  19.184  15.287  1.00 32.66    -0.273 OA
BRANCH  30  33
HETATM   33  C22 MK1 B 902      26.850  18.727  12.590  1.00 29.22     0.147 C 
HETATM   34  C30 MK1 B 902      27.493  17.648  11.680  1.00 31.86    -0.027 A 
HETATM   35  C29 MK1 B 902      27.599  16.296  11.769  1.00 27.70     0.010 A 
HETATM   36  C25 MK1 B 902      28.135  18.291  10.417  1.00 31.29    -0.047 A 
HETATM   37  C28 MK1 B 902      28.237  15.548  10.789  1.00 29.01     0.001 A 
HETATM   38  C27 MK1 B 902      28.800  16.138   9.647  1.00 28.00     0.001 A 
HETATM   39  C26 MK1 B 902      28.751  17.523   9.457  1.00 32.00     0.008 A 
HETATM   40  C24 MK1 B 902      27.813  19.749  10.633  1.00 32.05     0.073 C 
HETATM   41  C23 MK1 B 902      26.698  19.905  11.641  1.00 28.82     0.149 C 
BRANCH  41  42
HETATM   42  O4  MK1 B 902      25.399  19.908  11.068  1.00 28.32    -0.393 OA
HETATM   43  H4  MK1 B 902      25.454  19.785  10.127  1.00  0.00     0.210 HD
ENDBRANCH  41  42
ENDBRANCH  30  33
ENDBRANCH  28  29
BRANCH  28  44
HETATM   44  C14 MK1 B 902      23.027  18.923  13.792  1.00 28.67     0.052 C 
BRANCH  44  45
HETATM   45  C15 MK1 B 902      21.820  18.060  13.812  1.00 26.89    -0.057 A 
HETATM   46  C16 MK1 B 902      21.839  16.750  14.295  1.00 29.22     0.007 A 
HETATM   47  C17 MK1 B 902      20.695  15.967  14.261  1.00 29.22     0.001 A 
HETATM   48  C18 MK1 B 902      19.523  16.512  13.733  1.00 30.97     0.000 A 
HETATM   49  C19 MK1 B 902      19.497  17.827  13.254  1.00 29.25     0.001 A 
HETATM   50  C20 MK1 B 902      20.656  18.603  13.296  1.00 29.96     0.007 A 
ENDBRANCH  44  45
ENDBRANCH  28  44
ENDBRANCH  27  28
ENDBRANCH  24  27
ENDBRANCH  23  24
ENDBRANCH   4  23
TORSDOF 14
ENDMDL
MODEL 18
REMARK VINA RESULT:      -3.7     26.143     28.581
REMARK  14 active torsions:
REMARK  status: ('A' for Active; 'I' for Inactive)
REMARK    1  A    between atoms: N1_1  and  C31_43 
REMARK    2  A    between atoms: C2_3  and  C3_4 
REMARK       I    between atoms: C3_4  and  N2_6 
REMARK    3  A    between atoms: N2_6  and  C4_8 
REMARK    4  A    between atoms: N3_12  and  C10_15 
REMARK    5  A    between atoms: C10_15  and  C11_16 
REMARK    6  A    between atoms: C11_16  and  O2_17 
REMARK    7  A    between atoms: C11_16  and  C12_19 
REMARK    8  A    between atoms: C12_19  and  C13_20 
REMARK    9  A    between atoms: C13_20  and  C21_28 
REMARK   10  A    between atoms: C13_20  and  C14_21 
REMARK   11  A    between atoms: C14_21  and  C15_22 
REMARK       I    between atoms: C21_28  and  N4_30 
REMARK   12  A    between atoms: N4_30  and  C22_32 
REMARK   13  A    between atoms: C23_33  and  O4_34 
REMARK   14  A    between atoms: C31_43  and  C32_44 
ROOT
HETATM    1  N1  MK1 B 902       3.688  32.196   4.800  1.00 28.25     0.096 N 
HETATM    2  C1  MK1 B 902       3.453  31.707   3.415  1.00 30.30     0.307 C 
HETATM    3  C2  MK1 B 902       3.406  32.661   2.238  1.00 27.27     0.200 C 
HETATM    4  N3  MK1 B 902       2.292  33.589   2.643  1.00 28.91    -0.395 N 
HETATM    5  C8  MK1 B 902       2.203  34.029   4.058  1.00 26.24     0.148 C 
HETATM    6  C9  MK1 B 902       2.631  33.044   5.126  1.00 27.47     0.292 C 
ENDROOT
BRANCH   1   7
HETATM    7  C31 MK1 B 902       4.010  31.193   5.822  1.00 36.25     0.312 C 
BRANCH   7   8
HETATM    8  C32 MK1 B 902       2.920  30.323   6.458  1.00 42.75    -0.015 A 
HETATM    9  C36 MK1 B 902       2.778  30.375   7.828  1.00 44.71     0.011 A 
HETATM   10  C35 MK1 B 902       1.803  29.572   8.414  1.00 49.34     0.018 A 
HETATM   11  C34 MK1 B 902       1.007  28.746   7.614  1.00 50.60     0.087 A 
HETATM   12  N5  MK1 B 902       1.085  28.634   6.227  1.00 51.38    -0.375 N 
HETATM   13  C33 MK1 B 902       2.088  29.473   5.714  1.00 47.41     0.096 A 
HETATM   14  H5  MK1 B 902       0.494  28.025   5.661  1.00  0.00     0.164 HD
ENDBRANCH   7   8
ENDBRANCH   1   7
BRANCH   3  15
HETATM   15  C3  MK1 B 902       3.092  31.870   0.998  1.00 28.85     0.242 C 
HETATM   16  O1  MK1 B 902       2.232  30.999   1.021  1.00 29.59    -0.271 OA
HETATM   17  N2  MK1 B 902       3.791  32.152  -0.084  1.00 22.29    -0.351 N 
HETATM   18  H2  MK1 B 902       4.523  32.850   0.049  1.00  0.00     0.163 HD
BRANCH  17  19
HETATM   19  C4  MK1 B 902       3.688  31.637  -1.412  1.00 23.47     0.022 C 
HETATM   20  C7  MK1 B 902       4.768  32.081  -2.298  1.00 22.75     0.037 C 
HETATM   21  C5  MK1 B 902       2.411  32.237  -2.029  1.00 27.66     0.037 C 
HETATM   22  C6  MK1 B 902       3.643  30.253  -1.462  1.00 21.71     0.037 C 
ENDBRANCH  17  19
ENDBRANCH   3  15
BRANCH   4  23
HETATM   23  C10 MK1 B 902       2.012  34.717   1.778  1.00 20.86     0.149 C 
BRANCH  23  24
HETATM   24  C11 MK1 B 902       3.123  35.768   1.740  1.00 21.68     0.136 C 
BRANCH  24  25
HETATM   25  O2  MK1 B 902       3.544  35.459   0.445  1.00 15.87    -0.394 OA
HETATM   26  H2  MK1 B 902       4.456  35.197   0.487  1.00  0.00     0.210 HD
ENDBRANCH  24  25
BRANCH  24  27
HETATM   27  C12 MK1 B 902       2.879  37.286   1.812  1.00 21.49     0.047 C 
BRANCH  27  28
HETATM   28  C13 MK1 B 902       3.739  38.174   2.724  1.00 26.89     0.084 C 
BRANCH  28  29
HETATM   29  C21 MK1 B 902       3.256  38.148   4.169  1.00 29.35     0.222 C 
HETATM   30  N4  MK1 B 902       4.171  37.798   5.069  1.00 31.19    -0.350 N 
HETATM   31  H4  MK1 B 902       5.032  37.350   4.756  1.00  0.00     0.163 HD
HETATM   32  O3  MK1 B 902       2.117  38.542   4.461  1.00 32.66    -0.273 OA
BRANCH  30  33
HETATM   33  C22 MK1 B 902       3.973  38.040   6.488  1.00 29.22     0.147 C 
HETATM   34  C30 MK1 B 902       3.230  36.965   7.323  1.00 31.86    -0.027 A 
HETATM   35  C29 MK1 B 902       2.177  36.145   7.062  1.00 27.70     0.010 A 
HETATM   36  C25 MK1 B 902       3.851  36.830   8.743  1.00 31.29    -0.047 A 
HETATM   37  C28 MK1 B 902       1.700  35.247   8.007  1.00 29.01     0.001 A 
HETATM   38  C27 MK1 B 902       2.278  35.125   9.280  1.00 28.00     0.001 A 
HETATM   39  C26 MK1 B 902       3.364  35.923   9.655  1.00 32.00     0.008 A 
HETATM   40  C24 MK1 B 902       4.972  37.837   8.670  1.00 32.05     0.073 C 
HETATM   41  C23 MK1 B 902       5.291  38.177   7.232  1.00 28.82     0.149 C 
BRANCH  41  42
HETATM   42  O4  MK1 B 902       6.275  37.337   6.647  1.00 28.32    -0.393 OA
HETATM   43  H4  MK1 B 902       6.018  36.425   6.725  1.00  0.00     0.210 HD
ENDBRANCH  41  42
ENDBRANCH  30  33
ENDBRANCH  28  29
BRANCH  28  44
HETATM   44  C14 MK1 B 902       3.785  39.634   2.241  1.00 28.67     0.052 C 
BRANCH  44  45
HETATM   45  C15 MK1 B 902       4.346  39.761   0.872  1.00 26.89    -0.057 A 
HETATM   46  C16 MK1 B 902       3.542  39.829  -0.267  1.00 29.22     0.007 A 
HETATM   47  C17 MK1 B 902       4.110  39.911  -1.530  1.00 29.22     0.001 A 
HETATM   48  C18 MK1 B 902       5.502  39.923  -1.641  1.00 30.97     0.000 A 
HETATM   49  C19 MK1 B 902       6.312  39.863  -0.501  1.00 29.25     0.001 A 
HETATM   50  C20 MK1 B 902       5.726  39.782   0.762  1.00 29.96     0.007 A 
ENDBRANCH  44  45
ENDBRANCH  28  44
ENDBRANCH  27  28
ENDBRANCH  24  27
ENDBRANCH  23  24
ENDBRANCH   4  23
TORSDOF 14
ENDMDL
MODEL 19
REMARK VINA RESULT:      -3.7      3.527      7.097
REMARK  14 active torsions:
REMARK  status: ('A' for Active; 'I' for Inactive)
REMARK    1  A    between atoms: N1_1  and  C31_43 
REMARK    2  A    between atoms: C2_3  and  C3_4 
REMARK       I    between atoms: C3_4  and  N2_6 
REMARK    3  A    between atoms: N2_6  and  C4_8 
REMARK    4  A    between atoms: N3_12  and  C10_15 
REMARK    5  A    between atoms: C10_15  and  C11_16 
REMARK    6  A    between atoms: C11_16  and  O2_17 
REMARK    7  A    between atoms: C11_16  and  C12_19 
REMARK    8  A    between atoms: C12_19  and  C13_20 
REMARK    9  A    between atoms: C13_20  and  C21_28 
REMARK   10  A    between atoms: C13_20  and  C14_21 
REMARK   11  A    between atoms: C14_21  and  C15_22 
REMARK       I    between atoms: C21_28  and  N4_30 
REMARK   12  A    between atoms: N4_30  and  C22_32 
REMARK   13  A    between atoms: C23_33  and  O4_34 
REMARK   14  A    between atoms: C31_43  and  C32_44 
ROOT
HETATM    1  N1  MK1 B 902      26.812  19.082  13.538  1.00 28.25     0.096 N 
HETATM    2  C1  MK1 B 902      25.327  19.055  13.460  1.00 30.30     0.307 C 
HETATM    3  C2  MK1 B 902      24.525  17.932  14.088  1.00 27.27     0.200 C 
HETATM    4  N3  MK1 B 902      25.091  16.725  13.389  1.00 28.91    -0.395 N 
HETATM    5  C8  MK1 B 902      26.555  16.653  13.154  1.00 26.24     0.148 C 
HETATM    6  C9  MK1 B 902      27.285  17.951  12.874  1.00 27.47     0.292 C 
ENDROOT
BRANCH   1   7
HETATM    7  C31 MK1 B 902      27.481  20.336  13.169  1.00 36.25     0.312 C 
BRANCH   7   8
HETATM    8  C32 MK1 B 902      28.305  21.132  14.188  1.00 42.75    -0.015 A 
HETATM    9  C36 MK1 B 902      27.629  22.001  15.017  1.00 44.71     0.011 A 
HETATM   10  C35 MK1 B 902      28.373  22.742  15.931  1.00 49.34     0.018 A 
HETATM   11  C34 MK1 B 902      29.762  22.591  15.984  1.00 50.60     0.087 A 
HETATM   12  N5  MK1 B 902      30.521  21.738  15.184  1.00 51.38    -0.375 N 
HETATM   13  C33 MK1 B 902      29.699  21.028  14.293  1.00 47.41     0.096 A 
HETATM   14  H5  MK1 B 902      31.535  21.641  15.239  1.00  0.00     0.164 HD
ENDBRANCH   7   8
ENDBRANCH   1   7
BRANCH   3  15
HETATM   15  C3  MK1 B 902      23.070  18.161  13.783  1.00 28.85     0.242 C 
HETATM   16  O1  MK1 B 902      22.690  18.273  12.625  1.00 29.59    -0.271 OA
HETATM   17  N2  MK1 B 902      22.250  18.245  14.812  1.00 22.29    -0.351 N 
HETATM   18  H2  MK1 B 902      22.702  18.203  15.726  1.00  0.00     0.163 HD
BRANCH  17  19
HETATM   19  C4  MK1 B 902      20.829  18.387  14.854  1.00 23.47     0.022 C 
HETATM   20  C7  MK1 B 902      20.121  17.451  13.974  1.00 22.75     0.037 C 
HETATM   21  C5  MK1 B 902      20.500  19.779  14.283  1.00 27.66     0.037 C 
HETATM   22  C6  MK1 B 902      20.301  18.251  16.127  1.00 21.71     0.037 C 
ENDBRANCH  17  19
ENDBRANCH   3  15
BRANCH   4  23
HETATM   23  C10 MK1 B 902      24.614  15.423  13.809  1.00 20.86     0.149 C 
BRANCH  23  24
HETATM   24  C11 MK1 B 902      23.440  14.891  12.985  1.00 21.68     0.136 C 
BRANCH  24  25
HETATM   25  O2  MK1 B 902      24.136  14.867  11.775  1.00 15.87    -0.394 OA
HETATM   26  H2  MK1 B 902      24.997  14.498  11.938  1.00  0.00     0.210 HD
ENDBRANCH  24  25
BRANCH  24  27
HETATM   27  C12 MK1 B 902      22.796  13.507  13.191  1.00 21.49     0.047 C 
BRANCH  27  28
HETATM   28  C13 MK1 B 902      21.291  13.305  12.967  1.00 26.89     0.084 C 
BRANCH  28  29
HETATM   29  C21 MK1 B 902      20.841  13.819  11.605  1.00 29.35     0.222 C 
HETATM   30  N4  MK1 B 902      21.107  13.017  10.577  1.00 31.19    -0.350 N 
HETATM   31  H4  MK1 B 902      21.778  12.259  10.697  1.00  0.00     0.163 HD
HETATM   32  O3  MK1 B 902      20.173  14.860  11.512  1.00 32.66    -0.273 OA
BRANCH  30  33
HETATM   33  C22 MK1 B 902      20.464  13.197   9.286  1.00 29.22     0.147 C 
HETATM   34  C30 MK1 B 902      21.179  12.648   8.023  1.00 31.86    -0.027 A 
HETATM   35  C29 MK1 B 902      22.483  12.582   7.645  1.00 27.70     0.010 A 
HETATM   36  C25 MK1 B 902      20.155  12.060   7.011  1.00 31.29    -0.047 A 
HETATM   37  C28 MK1 B 902      22.863  12.021   6.433  1.00 29.01     0.001 A 
HETATM   38  C27 MK1 B 902      21.931  11.481   5.535  1.00 28.00     0.001 A 
HETATM   39  C26 MK1 B 902      20.562  11.500   5.823  1.00 32.00     0.008 A 
HETATM   40  C24 MK1 B 902      18.857  12.272   7.750  1.00 32.05     0.073 C 
HETATM   41  C23 MK1 B 902      19.113  12.506   9.221  1.00 28.82     0.149 C 
BRANCH  41  42
HETATM   42  O4  MK1 B 902      19.130  11.318   9.999  1.00 28.32    -0.393 OA
HETATM   43  H4  MK1 B 902      18.917  10.567   9.457  1.00  0.00     0.210 HD
ENDBRANCH  41  42
ENDBRANCH  30  33
ENDBRANCH  28  29
BRANCH  28  44
HETATM   44  C14 MK1 B 902      20.443  13.980  14.059  1.00 28.67     0.052 C 
BRANCH  44  45
HETATM   45  C15 MK1 B 902      19.145  13.293  14.276  1.00 26.89    -0.057 A 
HETATM   46  C16 MK1 B 902      17.936  13.984  14.381  1.00 29.22     0.007 A 
HETATM   47  C17 MK1 B 902      16.752  13.303  14.621  1.00 29.22     0.001 A 
HETATM   48  C18 MK1 B 902      16.790  11.914  14.757  1.00 30.97     0.000 A 
HETATM   49  C19 MK1 B 902      17.999  11.216  14.644  1.00 29.25     0.001 A 
HETATM   50  C20 MK1 B 902      19.182  11.915  14.402  1.00 29.96     0.007 A 
ENDBRANCH  44  45
ENDBRANCH  28  44
ENDBRANCH  27  28
ENDBRANCH  24  27
ENDBRANCH  23  24
ENDBRANCH   4  23
TORSDOF 14
ENDMDL
MODEL 20
REMARK VINA RESULT:      -3.6      4.551      9.359
REMARK  14 active torsions:
REMARK  status: ('A' for Active; 'I' for Inactive)
REMARK    1  A    between atoms: N1_1  and  C31_43 
REMARK    2  A    between atoms: C2_3  and  C3_4 
REMARK       I    between atoms: C3_4  and  N2_6 
REMARK    3  A    between atoms: N2_6  and  C4_8 
REMARK    4  A    between atoms: N3_12  and  C10_15 
REMARK    5  A    between atoms: C10_15  and  C11_16 
REMARK    6  A    between atoms: C11_16  and  O2_17 
REMARK    7  A    between atoms: C11_16  and  C12_19 
REMARK    8  A    between atoms: C12_19  and  C13_20 
REMARK    9  A    between atoms: C13_20  and  C21_28 
REMARK   10  A    between atoms: C13_20  and  C14_21 
REMARK   11  A    between atoms: C14_21  and  C15_22 
REMARK       I    between atoms: C21_28  and  N4_30 
REMARK   12  A    between atoms: N4_30  and  C22_32 
REMARK   13  A    between atoms: C23_33  and  O4_34 
REMARK   14  A    between atoms: C31_43  and  C32_44 
ROOT
HETATM    1  N1  MK1 B 902      19.151  15.402  14.846  1.00 28.25     0.096 N 
HETATM    2  C1  MK1 B 902      20.410  15.336  15.634  1.00 30.30     0.307 C 
HETATM    3  C2  MK1 B 902      21.229  16.579  15.919  1.00 27.27     0.200 C 
HETATM    4  N3  MK1 B 902      21.528  17.072  14.528  1.00 28.91    -0.395 N 
HETATM    5  C8  MK1 B 902      20.459  17.014  13.501  1.00 26.24     0.148 C 
HETATM    6  C9  MK1 B 902      19.483  15.857  13.570  1.00 27.47     0.292 C 
ENDROOT
BRANCH   1   7
HETATM    7  C31 MK1 B 902      18.280  14.221  14.869  1.00 36.25     0.312 C 
BRANCH   7   8
HETATM    8  C32 MK1 B 902      16.760  14.353  15.021  1.00 42.75    -0.015 A 
HETATM    9  C36 MK1 B 902      16.025  13.191  15.133  1.00 44.71     0.011 A 
HETATM   10  C35 MK1 B 902      14.642  13.304  15.251  1.00 49.34     0.018 A 
HETATM   11  C34 MK1 B 902      14.043  14.567  15.250  1.00 50.60     0.087 A 
HETATM   12  N5  MK1 B 902      14.710  15.786  15.141  1.00 51.38    -0.375 N 
HETATM   13  C33 MK1 B 902      16.095  15.588  15.027  1.00 47.41     0.096 A 
HETATM   14  H5  MK1 B 902      14.253  16.698  15.143  1.00  0.00     0.164 HD
ENDBRANCH   7   8
ENDBRANCH   1   7
BRANCH   3  15
HETATM   15  C3  MK1 B 902      22.463  16.171  16.678  1.00 28.85     0.242 C 
HETATM   16  O1  MK1 B 902      22.840  16.825  17.642  1.00 29.59    -0.271 OA
HETATM   17  N2  MK1 B 902      23.105  15.103  16.246  1.00 22.29    -0.351 N 
HETATM   18  H2  MK1 B 902      22.725  14.690  15.394  1.00  0.00     0.163 HD
BRANCH  17  19
HETATM   19  C4  MK1 B 902      24.247  14.433  16.780  1.00 23.47     0.022 C 
HETATM   20  C7  MK1 B 902      25.490  15.200  16.652  1.00 22.75     0.037 C 
HETATM   21  C5  MK1 B 902      24.476  13.179  15.916  1.00 27.66     0.037 C 
HETATM   22  C6  MK1 B 902      24.104  14.081  18.113  1.00 21.71     0.037 C 
ENDBRANCH  17  19
ENDBRANCH   3  15
BRANCH   4  23
HETATM   23  C10 MK1 B 902      22.240  18.328  14.401  1.00 20.86     0.149 C 
BRANCH  23  24
HETATM   24  C11 MK1 B 902      23.608  18.207  13.729  1.00 21.68     0.136 C 
BRANCH  24  25
HETATM   25  O2  MK1 B 902      23.277  18.995  12.626  1.00 15.87    -0.394 OA
HETATM   26  H2  MK1 B 902      22.660  18.509  12.092  1.00  0.00     0.210 HD
ENDBRANCH  24  25
BRANCH  24  27
HETATM   27  C12 MK1 B 902      24.917  18.753  14.329  1.00 21.49     0.047 C 
BRANCH  27  28
HETATM   28  C13 MK1 B 902      26.124  19.052  13.429  1.00 26.89     0.084 C 
BRANCH  28  29
HETATM   29  C21 MK1 B 902      27.116  17.896  13.397  1.00 29.35     0.222 C 
HETATM   30  N4  MK1 B 902      27.015  17.087  12.347  1.00 31.19    -0.350 N 
HETATM   31  H4  MK1 B 902      26.174  17.121  11.770  1.00  0.00     0.163 HD
HETATM   32  O3  MK1 B 902      28.016  17.813  14.247  1.00 32.66    -0.273 OA
BRANCH  30  33
HETATM   33  C22 MK1 B 902      28.074  16.154  12.000  1.00 29.22     0.147 C 
HETATM   34  C30 MK1 B 902      27.989  14.705  12.549  1.00 31.86    -0.027 A 
HETATM   35  C29 MK1 B 902      27.572  14.179  13.731  1.00 27.70     0.010 A 
HETATM   36  C25 MK1 B 902      28.495  13.677  11.497  1.00 31.29    -0.047 A 
HETATM   37  C28 MK1 B 902      27.596  12.812  13.970  1.00 29.01     0.001 A 
HETATM   38  C27 MK1 B 902      28.041  11.893  13.008  1.00 28.00     0.001 A 
HETATM   39  C26 MK1 B 902      28.497  12.327  11.758  1.00 32.00     0.008 A 
HETATM   40  C24 MK1 B 902      28.839  14.584  10.341  1.00 32.05     0.073 C 
HETATM   41  C23 MK1 B 902      28.166  15.928  10.500  1.00 28.82     0.149 C 
BRANCH  41  42
HETATM   42  O4  MK1 B 902      26.875  15.999   9.912  1.00 28.32    -0.393 OA
HETATM   43  H4  MK1 B 902      26.578  16.901   9.879  1.00  0.00     0.210 HD
ENDBRANCH  41  42
ENDBRANCH  30  33
ENDBRANCH  28  29
BRANCH  28  44
HETATM   44  C14 MK1 B 902      26.865  20.332  13.854  1.00 28.67     0.052 C 
BRANCH  44  45
HETATM   45  C15 MK1 B 902      27.461  21.053  12.701  1.00 26.89    -0.057 A 
HETATM   46  C16 MK1 B 902      26.878  21.056  11.432  1.00 29.22     0.007 A 
HETATM   47  C17 MK1 B 902      27.490  21.712  10.374  1.00 29.22     0.001 A 
HETATM   48  C18 MK1 B 902      28.701  22.369  10.601  1.00 30.97     0.000 A 
HETATM   49  C19 MK1 B 902      29.286  22.375  11.873  1.00 29.25     0.001 A 
HETATM   50  C20 MK1 B 902      28.658  21.711  12.927  1.00 29.96     0.007 A 
ENDBRANCH  44  45
ENDBRANCH  28  44
ENDBRANCH  27  28
ENDBRANCH  24  27
ENDBRANCH  23  24
ENDBRANCH   4  23
TORSDOF 14
ENDMDL
